version 2
run General-0-20101025-18:20:24-4322
attr configname General
attr datetime 20101025-18:20:24
attr experiment General
attr inifile /home/lucachaves/program/omnetpp-4.1/samples/CDNRef/models/exp01/omnetpp.ini
attr iterationvars ""
attr iterationvars2 $repetition=0
attr measurement ""
attr network base
attr processid 4322
attr repetition 0
attr replication #0
attr resultdir results
attr runnumber 0
attr seedset 0

scalar base.r0.networkLayer.arp 	"ARP requests sent" 	0
scalar base.r0.networkLayer.arp 	"ARP replies sent" 	0
scalar base.r0.networkLayer.arp 	"ARP resolutions" 	0
scalar base.r0.networkLayer.arp 	"failed ARP resolutions" 	0
scalar base.r0.ppp[0].queue 	"packets received by queue" 	1
scalar base.r0.ppp[0].queue 	"packets dropped by queue" 	0
scalar base.r0.ppp[1].queue 	"packets received by queue" 	1
scalar base.r0.ppp[1].queue 	"packets dropped by queue" 	0
scalar base.r0.ppp[2].queue 	"packets received by queue" 	0
scalar base.r0.ppp[2].queue 	"packets dropped by queue" 	0
scalar base.r1.networkLayer.arp 	"ARP requests sent" 	0
scalar base.r1.networkLayer.arp 	"ARP replies sent" 	0
scalar base.r1.networkLayer.arp 	"ARP resolutions" 	0
scalar base.r1.networkLayer.arp 	"failed ARP resolutions" 	0
scalar base.r1.ppp[0].queue 	"packets received by queue" 	2
scalar base.r1.ppp[0].queue 	"packets dropped by queue" 	0
scalar base.r1.ppp[1].queue 	"packets received by queue" 	2
scalar base.r1.ppp[1].queue 	"packets dropped by queue" 	0
scalar base.r1.ppp[2].queue 	"packets received by queue" 	0
scalar base.r1.ppp[2].queue 	"packets dropped by queue" 	0
scalar base.r2.networkLayer.arp 	"ARP requests sent" 	0
scalar base.r2.networkLayer.arp 	"ARP replies sent" 	0
scalar base.r2.networkLayer.arp 	"ARP resolutions" 	0
scalar base.r2.networkLayer.arp 	"failed ARP resolutions" 	0
scalar base.r2.ppp[0].queue 	"packets received by queue" 	2
scalar base.r2.ppp[0].queue 	"packets dropped by queue" 	0
scalar base.r2.ppp[1].queue 	"packets received by queue" 	2
scalar base.r2.ppp[1].queue 	"packets dropped by queue" 	0
scalar base.r2.ppp[2].queue 	"packets received by queue" 	0
scalar base.r2.ppp[2].queue 	"packets dropped by queue" 	0
scalar base.r3.networkLayer.arp 	"ARP requests sent" 	0
scalar base.r3.networkLayer.arp 	"ARP replies sent" 	0
scalar base.r3.networkLayer.arp 	"ARP resolutions" 	0
scalar base.r3.networkLayer.arp 	"failed ARP resolutions" 	0
scalar base.r3.ppp[0].queue 	"packets received by queue" 	2
scalar base.r3.ppp[0].queue 	"packets dropped by queue" 	0
scalar base.r3.ppp[1].queue 	"packets received by queue" 	2
scalar base.r3.ppp[1].queue 	"packets dropped by queue" 	0
scalar base.r3.ppp[2].queue 	"packets received by queue" 	0
scalar base.r3.ppp[2].queue 	"packets dropped by queue" 	0
scalar base.r4.networkLayer.arp 	"ARP requests sent" 	0
scalar base.r4.networkLayer.arp 	"ARP replies sent" 	0
scalar base.r4.networkLayer.arp 	"ARP resolutions" 	0
scalar base.r4.networkLayer.arp 	"failed ARP resolutions" 	0
scalar base.r4.ppp[0].queue 	"packets received by queue" 	0
scalar base.r4.ppp[0].queue 	"packets dropped by queue" 	0
scalar base.r4.ppp[1].queue 	"packets received by queue" 	6
scalar base.r4.ppp[1].queue 	"packets dropped by queue" 	0
scalar base.r4.ppp[2].queue 	"packets received by queue" 	6
scalar base.r4.ppp[2].queue 	"packets dropped by queue" 	0
scalar base.r4.ppp[3].queue 	"packets received by queue" 	0
scalar base.r4.ppp[3].queue 	"packets dropped by queue" 	0
scalar base.r5.networkLayer.arp 	"ARP requests sent" 	0
scalar base.r5.networkLayer.arp 	"ARP replies sent" 	0
scalar base.r5.networkLayer.arp 	"ARP resolutions" 	0
scalar base.r5.networkLayer.arp 	"failed ARP resolutions" 	0
scalar base.r5.ppp[0].queue 	"packets received by queue" 	3
scalar base.r5.ppp[0].queue 	"packets dropped by queue" 	0
scalar base.r5.ppp[1].queue 	"packets received by queue" 	0
scalar base.r5.ppp[1].queue 	"packets dropped by queue" 	0
scalar base.r5.ppp[2].queue 	"packets received by queue" 	3
scalar base.r5.ppp[2].queue 	"packets dropped by queue" 	0
scalar base.r5.ppp[3].queue 	"packets received by queue" 	0
scalar base.r5.ppp[3].queue 	"packets dropped by queue" 	0
scalar base.r6.networkLayer.arp 	"ARP requests sent" 	0
scalar base.r6.networkLayer.arp 	"ARP replies sent" 	0
scalar base.r6.networkLayer.arp 	"ARP resolutions" 	0
scalar base.r6.networkLayer.arp 	"failed ARP resolutions" 	0
scalar base.r6.ppp[0].queue 	"packets received by queue" 	0
scalar base.r6.ppp[0].queue 	"packets dropped by queue" 	0
scalar base.r6.ppp[1].queue 	"packets received by queue" 	0
scalar base.r6.ppp[1].queue 	"packets dropped by queue" 	0
scalar base.r6.ppp[2].queue 	"packets received by queue" 	0
scalar base.r6.ppp[2].queue 	"packets dropped by queue" 	0
scalar base.r6.ppp[3].queue 	"packets received by queue" 	0
scalar base.r6.ppp[3].queue 	"packets dropped by queue" 	0
scalar base.r6.ppp[4].queue 	"packets received by queue" 	0
scalar base.r6.ppp[4].queue 	"packets dropped by queue" 	0
scalar base.r6.ppp[5].queue 	"packets received by queue" 	0
scalar base.r6.ppp[5].queue 	"packets dropped by queue" 	0
scalar base.r6.ppp[6].queue 	"packets received by queue" 	0
scalar base.r6.ppp[6].queue 	"packets dropped by queue" 	0
scalar base.r6.ppp[7].queue 	"packets received by queue" 	16
scalar base.r6.ppp[7].queue 	"packets dropped by queue" 	0
scalar base.r6.ppp[8].queue 	"packets received by queue" 	0
scalar base.r6.ppp[8].queue 	"packets dropped by queue" 	0
scalar base.r6.ppp[9].queue 	"packets received by queue" 	16
scalar base.r6.ppp[9].queue 	"packets dropped by queue" 	0
scalar base.r6.ppp[10].queue 	"packets received by queue" 	0
scalar base.r6.ppp[10].queue 	"packets dropped by queue" 	0
scalar base.r7.networkLayer.arp 	"ARP requests sent" 	0
scalar base.r7.networkLayer.arp 	"ARP replies sent" 	0
scalar base.r7.networkLayer.arp 	"ARP resolutions" 	0
scalar base.r7.networkLayer.arp 	"failed ARP resolutions" 	0
scalar base.r7.ppp[0].queue 	"packets received by queue" 	2
scalar base.r7.ppp[0].queue 	"packets dropped by queue" 	0
scalar base.r7.ppp[1].queue 	"packets received by queue" 	2
scalar base.r7.ppp[1].queue 	"packets dropped by queue" 	0
scalar base.r7.ppp[2].queue 	"packets received by queue" 	0
scalar base.r7.ppp[2].queue 	"packets dropped by queue" 	0
scalar base.r8.networkLayer.arp 	"ARP requests sent" 	0
scalar base.r8.networkLayer.arp 	"ARP replies sent" 	0
scalar base.r8.networkLayer.arp 	"ARP resolutions" 	0
scalar base.r8.networkLayer.arp 	"failed ARP resolutions" 	0
scalar base.r8.ppp[0].queue 	"packets received by queue" 	2
scalar base.r8.ppp[0].queue 	"packets dropped by queue" 	0
scalar base.r8.ppp[1].queue 	"packets received by queue" 	2
scalar base.r8.ppp[1].queue 	"packets dropped by queue" 	0
scalar base.r8.ppp[2].queue 	"packets received by queue" 	0
scalar base.r8.ppp[2].queue 	"packets dropped by queue" 	0
scalar base.r9.networkLayer.arp 	"ARP requests sent" 	0
scalar base.r9.networkLayer.arp 	"ARP replies sent" 	0
scalar base.r9.networkLayer.arp 	"ARP resolutions" 	0
scalar base.r9.networkLayer.arp 	"failed ARP resolutions" 	0
scalar base.r9.ppp[0].queue 	"packets received by queue" 	2
scalar base.r9.ppp[0].queue 	"packets dropped by queue" 	0
scalar base.r9.ppp[1].queue 	"packets received by queue" 	2
scalar base.r9.ppp[1].queue 	"packets dropped by queue" 	0
scalar base.r9.ppp[2].queue 	"packets received by queue" 	0
scalar base.r9.ppp[2].queue 	"packets dropped by queue" 	0
scalar base.r10.networkLayer.arp 	"ARP requests sent" 	0
scalar base.r10.networkLayer.arp 	"ARP replies sent" 	0
scalar base.r10.networkLayer.arp 	"ARP resolutions" 	0
scalar base.r10.networkLayer.arp 	"failed ARP resolutions" 	0
scalar base.r10.ppp[0].queue 	"packets received by queue" 	1
scalar base.r10.ppp[0].queue 	"packets dropped by queue" 	0
scalar base.r10.ppp[1].queue 	"packets received by queue" 	1
scalar base.r10.ppp[1].queue 	"packets dropped by queue" 	0
scalar base.r10.ppp[2].queue 	"packets received by queue" 	0
scalar base.r10.ppp[2].queue 	"packets dropped by queue" 	0
scalar base.r11.networkLayer.arp 	"ARP requests sent" 	0
scalar base.r11.networkLayer.arp 	"ARP replies sent" 	0
scalar base.r11.networkLayer.arp 	"ARP resolutions" 	0
scalar base.r11.networkLayer.arp 	"failed ARP resolutions" 	0
scalar base.r11.ppp[0].queue 	"packets received by queue" 	2
scalar base.r11.ppp[0].queue 	"packets dropped by queue" 	0
scalar base.r11.ppp[1].queue 	"packets received by queue" 	2
scalar base.r11.ppp[1].queue 	"packets dropped by queue" 	0
scalar base.r11.ppp[2].queue 	"packets received by queue" 	0
scalar base.r11.ppp[2].queue 	"packets dropped by queue" 	0
scalar base.r12.networkLayer.arp 	"ARP requests sent" 	0
scalar base.r12.networkLayer.arp 	"ARP replies sent" 	0
scalar base.r12.networkLayer.arp 	"ARP resolutions" 	0
scalar base.r12.networkLayer.arp 	"failed ARP resolutions" 	0
scalar base.r12.ppp[0].queue 	"packets received by queue" 	0
scalar base.r12.ppp[0].queue 	"packets dropped by queue" 	0
scalar base.r12.ppp[1].queue 	"packets received by queue" 	4
scalar base.r12.ppp[1].queue 	"packets dropped by queue" 	0
scalar base.r12.ppp[2].queue 	"packets received by queue" 	0
scalar base.r12.ppp[2].queue 	"packets dropped by queue" 	0
scalar base.r12.ppp[3].queue 	"packets received by queue" 	4
scalar base.r12.ppp[3].queue 	"packets dropped by queue" 	0
scalar base.r12.ppp[4].queue 	"packets received by queue" 	0
scalar base.r12.ppp[4].queue 	"packets dropped by queue" 	0
scalar base.r13.networkLayer.arp 	"ARP requests sent" 	0
scalar base.r13.networkLayer.arp 	"ARP replies sent" 	0
scalar base.r13.networkLayer.arp 	"ARP resolutions" 	0
scalar base.r13.networkLayer.arp 	"failed ARP resolutions" 	0
scalar base.r13.ppp[0].queue 	"packets received by queue" 	1
scalar base.r13.ppp[0].queue 	"packets dropped by queue" 	0
scalar base.r13.ppp[1].queue 	"packets received by queue" 	1
scalar base.r13.ppp[1].queue 	"packets dropped by queue" 	0
scalar base.r13.ppp[2].queue 	"packets received by queue" 	0
scalar base.r13.ppp[2].queue 	"packets dropped by queue" 	0
scalar base.r14.networkLayer.arp 	"ARP requests sent" 	0
scalar base.r14.networkLayer.arp 	"ARP replies sent" 	0
scalar base.r14.networkLayer.arp 	"ARP resolutions" 	0
scalar base.r14.networkLayer.arp 	"failed ARP resolutions" 	0
scalar base.r14.ppp[0].queue 	"packets received by queue" 	2
scalar base.r14.ppp[0].queue 	"packets dropped by queue" 	0
scalar base.r14.ppp[1].queue 	"packets received by queue" 	2
scalar base.r14.ppp[1].queue 	"packets dropped by queue" 	0
scalar base.r14.ppp[2].queue 	"packets received by queue" 	0
scalar base.r14.ppp[2].queue 	"packets dropped by queue" 	0
scalar base.r15.networkLayer.arp 	"ARP requests sent" 	0
scalar base.r15.networkLayer.arp 	"ARP replies sent" 	0
scalar base.r15.networkLayer.arp 	"ARP resolutions" 	0
scalar base.r15.networkLayer.arp 	"failed ARP resolutions" 	0
scalar base.r15.ppp[0].queue 	"packets received by queue" 	0
scalar base.r15.ppp[0].queue 	"packets dropped by queue" 	0
scalar base.r15.ppp[1].queue 	"packets received by queue" 	1
scalar base.r15.ppp[1].queue 	"packets dropped by queue" 	0
scalar base.r15.ppp[2].queue 	"packets received by queue" 	1
scalar base.r15.ppp[2].queue 	"packets dropped by queue" 	0
scalar base.r15.ppp[3].queue 	"packets received by queue" 	0
scalar base.r15.ppp[3].queue 	"packets dropped by queue" 	0
scalar base.r16.networkLayer.arp 	"ARP requests sent" 	0
scalar base.r16.networkLayer.arp 	"ARP replies sent" 	0
scalar base.r16.networkLayer.arp 	"ARP resolutions" 	0
scalar base.r16.networkLayer.arp 	"failed ARP resolutions" 	0
scalar base.r16.ppp[0].queue 	"packets received by queue" 	4
scalar base.r16.ppp[0].queue 	"packets dropped by queue" 	0
scalar base.r16.ppp[1].queue 	"packets received by queue" 	0
scalar base.r16.ppp[1].queue 	"packets dropped by queue" 	0
scalar base.r16.ppp[2].queue 	"packets received by queue" 	0
scalar base.r16.ppp[2].queue 	"packets dropped by queue" 	0
scalar base.r16.ppp[3].queue 	"packets received by queue" 	0
scalar base.r16.ppp[3].queue 	"packets dropped by queue" 	0
scalar base.r16.ppp[4].queue 	"packets received by queue" 	4
scalar base.r16.ppp[4].queue 	"packets dropped by queue" 	0
scalar base.r16.ppp[5].queue 	"packets received by queue" 	0
scalar base.r16.ppp[5].queue 	"packets dropped by queue" 	0
scalar base.r17.networkLayer.arp 	"ARP requests sent" 	0
scalar base.r17.networkLayer.arp 	"ARP replies sent" 	0
scalar base.r17.networkLayer.arp 	"ARP resolutions" 	0
scalar base.r17.networkLayer.arp 	"failed ARP resolutions" 	0
scalar base.r17.ppp[0].queue 	"packets received by queue" 	1
scalar base.r17.ppp[0].queue 	"packets dropped by queue" 	0
scalar base.r17.ppp[1].queue 	"packets received by queue" 	1
scalar base.r17.ppp[1].queue 	"packets dropped by queue" 	0
scalar base.r17.ppp[2].queue 	"packets received by queue" 	0
scalar base.r17.ppp[2].queue 	"packets dropped by queue" 	0
scalar base.r18.networkLayer.arp 	"ARP requests sent" 	0
scalar base.r18.networkLayer.arp 	"ARP replies sent" 	0
scalar base.r18.networkLayer.arp 	"ARP resolutions" 	0
scalar base.r18.networkLayer.arp 	"failed ARP resolutions" 	0
scalar base.r18.ppp[0].queue 	"packets received by queue" 	1
scalar base.r18.ppp[0].queue 	"packets dropped by queue" 	0
scalar base.r18.ppp[1].queue 	"packets received by queue" 	1
scalar base.r18.ppp[1].queue 	"packets dropped by queue" 	0
scalar base.r18.ppp[2].queue 	"packets received by queue" 	0
scalar base.r18.ppp[2].queue 	"packets dropped by queue" 	0
scalar base.r19.networkLayer.arp 	"ARP requests sent" 	0
scalar base.r19.networkLayer.arp 	"ARP replies sent" 	0
scalar base.r19.networkLayer.arp 	"ARP resolutions" 	0
scalar base.r19.networkLayer.arp 	"failed ARP resolutions" 	0
scalar base.r19.ppp[0].queue 	"packets received by queue" 	1
scalar base.r19.ppp[0].queue 	"packets dropped by queue" 	0
scalar base.r19.ppp[1].queue 	"packets received by queue" 	1
scalar base.r19.ppp[1].queue 	"packets dropped by queue" 	0
scalar base.r19.ppp[2].queue 	"packets received by queue" 	0
scalar base.r19.ppp[2].queue 	"packets dropped by queue" 	0
scalar base.r20.networkLayer.arp 	"ARP requests sent" 	0
scalar base.r20.networkLayer.arp 	"ARP replies sent" 	0
scalar base.r20.networkLayer.arp 	"ARP resolutions" 	0
scalar base.r20.networkLayer.arp 	"failed ARP resolutions" 	0
scalar base.r20.ppp[0].queue 	"packets received by queue" 	0
scalar base.r20.ppp[0].queue 	"packets dropped by queue" 	0
scalar base.r20.ppp[1].queue 	"packets received by queue" 	0
scalar base.r20.ppp[1].queue 	"packets dropped by queue" 	0
scalar base.r20.ppp[2].queue 	"packets received by queue" 	0
scalar base.r20.ppp[2].queue 	"packets dropped by queue" 	0
scalar base.r20.ppp[3].queue 	"packets received by queue" 	0
scalar base.r20.ppp[3].queue 	"packets dropped by queue" 	0
scalar base.r20.ppp[4].queue 	"packets received by queue" 	0
scalar base.r20.ppp[4].queue 	"packets dropped by queue" 	0
scalar base.r20.ppp[5].queue 	"packets received by queue" 	0
scalar base.r20.ppp[5].queue 	"packets dropped by queue" 	0
scalar base.r20.ppp[6].queue 	"packets received by queue" 	0
scalar base.r20.ppp[6].queue 	"packets dropped by queue" 	0
scalar base.r20.ppp[7].queue 	"packets received by queue" 	17
scalar base.r20.ppp[7].queue 	"packets dropped by queue" 	0
scalar base.r20.ppp[8].queue 	"packets received by queue" 	0
scalar base.r20.ppp[8].queue 	"packets dropped by queue" 	0
scalar base.r20.ppp[9].queue 	"packets received by queue" 	17
scalar base.r20.ppp[9].queue 	"packets dropped by queue" 	0
scalar base.r20.ppp[10].queue 	"packets received by queue" 	0
scalar base.r20.ppp[10].queue 	"packets dropped by queue" 	0
scalar base.r21.networkLayer.arp 	"ARP requests sent" 	0
scalar base.r21.networkLayer.arp 	"ARP replies sent" 	0
scalar base.r21.networkLayer.arp 	"ARP resolutions" 	0
scalar base.r21.networkLayer.arp 	"failed ARP resolutions" 	0
scalar base.r21.ppp[0].queue 	"packets received by queue" 	1
scalar base.r21.ppp[0].queue 	"packets dropped by queue" 	0
scalar base.r21.ppp[1].queue 	"packets received by queue" 	1
scalar base.r21.ppp[1].queue 	"packets dropped by queue" 	0
scalar base.r21.ppp[2].queue 	"packets received by queue" 	0
scalar base.r21.ppp[2].queue 	"packets dropped by queue" 	0
scalar base.r22.networkLayer.arp 	"ARP requests sent" 	0
scalar base.r22.networkLayer.arp 	"ARP replies sent" 	0
scalar base.r22.networkLayer.arp 	"ARP resolutions" 	0
scalar base.r22.networkLayer.arp 	"failed ARP resolutions" 	0
scalar base.r22.ppp[0].queue 	"packets received by queue" 	1
scalar base.r22.ppp[0].queue 	"packets dropped by queue" 	0
scalar base.r22.ppp[1].queue 	"packets received by queue" 	0
scalar base.r22.ppp[1].queue 	"packets dropped by queue" 	0
scalar base.r22.ppp[2].queue 	"packets received by queue" 	1
scalar base.r22.ppp[2].queue 	"packets dropped by queue" 	0
scalar base.r22.ppp[3].queue 	"packets received by queue" 	0
scalar base.r22.ppp[3].queue 	"packets dropped by queue" 	0
scalar base.r23.networkLayer.arp 	"ARP requests sent" 	0
scalar base.r23.networkLayer.arp 	"ARP replies sent" 	0
scalar base.r23.networkLayer.arp 	"ARP resolutions" 	0
scalar base.r23.networkLayer.arp 	"failed ARP resolutions" 	0
scalar base.r23.ppp[0].queue 	"packets received by queue" 	0
scalar base.r23.ppp[0].queue 	"packets dropped by queue" 	0
scalar base.r23.ppp[1].queue 	"packets received by queue" 	0
scalar base.r23.ppp[1].queue 	"packets dropped by queue" 	0
scalar base.r23.ppp[2].queue 	"packets received by queue" 	0
scalar base.r23.ppp[2].queue 	"packets dropped by queue" 	0
scalar base.r23.ppp[3].queue 	"packets received by queue" 	0
scalar base.r23.ppp[3].queue 	"packets dropped by queue" 	0
scalar base.r24.networkLayer.arp 	"ARP requests sent" 	0
scalar base.r24.networkLayer.arp 	"ARP replies sent" 	0
scalar base.r24.networkLayer.arp 	"ARP resolutions" 	0
scalar base.r24.networkLayer.arp 	"failed ARP resolutions" 	0
scalar base.r24.ppp[0].queue 	"packets received by queue" 	0
scalar base.r24.ppp[0].queue 	"packets dropped by queue" 	0
scalar base.r24.ppp[1].queue 	"packets received by queue" 	0
scalar base.r24.ppp[1].queue 	"packets dropped by queue" 	0
scalar base.r24.ppp[2].queue 	"packets received by queue" 	0
scalar base.r24.ppp[2].queue 	"packets dropped by queue" 	0
scalar base.r24.ppp[3].queue 	"packets received by queue" 	0
scalar base.r24.ppp[3].queue 	"packets dropped by queue" 	0
scalar base.r24.ppp[4].queue 	"packets received by queue" 	0
scalar base.r24.ppp[4].queue 	"packets dropped by queue" 	0
scalar base.r24.ppp[5].queue 	"packets received by queue" 	0
scalar base.r24.ppp[5].queue 	"packets dropped by queue" 	0
scalar base.r24.ppp[6].queue 	"packets received by queue" 	1000
scalar base.r24.ppp[6].queue 	"packets dropped by queue" 	0
scalar base.r24.ppp[7].queue 	"packets received by queue" 	39
scalar base.r24.ppp[7].queue 	"packets dropped by queue" 	0
scalar base.r24.ppp[8].queue 	"packets received by queue" 	0
scalar base.r24.ppp[8].queue 	"packets dropped by queue" 	0
scalar base.r25.networkLayer.arp 	"ARP requests sent" 	0
scalar base.r25.networkLayer.arp 	"ARP replies sent" 	0
scalar base.r25.networkLayer.arp 	"ARP resolutions" 	0
scalar base.r25.networkLayer.arp 	"failed ARP resolutions" 	0
scalar base.r25.ppp[0].queue 	"packets received by queue" 	2
scalar base.r25.ppp[0].queue 	"packets dropped by queue" 	0
scalar base.r25.ppp[1].queue 	"packets received by queue" 	2
scalar base.r25.ppp[1].queue 	"packets dropped by queue" 	0
scalar base.r25.ppp[2].queue 	"packets received by queue" 	0
scalar base.r25.ppp[2].queue 	"packets dropped by queue" 	0
scalar base.r26.networkLayer.arp 	"ARP requests sent" 	0
scalar base.r26.networkLayer.arp 	"ARP replies sent" 	0
scalar base.r26.networkLayer.arp 	"ARP resolutions" 	0
scalar base.r26.networkLayer.arp 	"failed ARP resolutions" 	0
scalar base.r26.ppp[0].queue 	"packets received by queue" 	1
scalar base.r26.ppp[0].queue 	"packets dropped by queue" 	0
scalar base.r26.ppp[1].queue 	"packets received by queue" 	1
scalar base.r26.ppp[1].queue 	"packets dropped by queue" 	0
scalar base.r26.ppp[2].queue 	"packets received by queue" 	0
scalar base.r26.ppp[2].queue 	"packets dropped by queue" 	0
scalar base.r27.networkLayer.arp 	"ARP requests sent" 	0
scalar base.r27.networkLayer.arp 	"ARP replies sent" 	0
scalar base.r27.networkLayer.arp 	"ARP resolutions" 	0
scalar base.r27.networkLayer.arp 	"failed ARP resolutions" 	0
scalar base.r27.ppp[0].queue 	"packets received by queue" 	0
scalar base.r27.ppp[0].queue 	"packets dropped by queue" 	0
scalar base.r27.ppp[1].queue 	"packets received by queue" 	1
scalar base.r27.ppp[1].queue 	"packets dropped by queue" 	0
scalar base.r28.networkLayer.arp 	"ARP requests sent" 	0
scalar base.r28.networkLayer.arp 	"ARP replies sent" 	0
scalar base.r28.networkLayer.arp 	"ARP resolutions" 	0
scalar base.r28.networkLayer.arp 	"failed ARP resolutions" 	0
scalar base.r28.ppp[0].queue 	"packets received by queue" 	0
scalar base.r28.ppp[0].queue 	"packets dropped by queue" 	0
scalar base.r28.ppp[1].queue 	"packets received by queue" 	1
scalar base.r28.ppp[1].queue 	"packets dropped by queue" 	0
scalar base.r29.networkLayer.arp 	"ARP requests sent" 	0
scalar base.r29.networkLayer.arp 	"ARP replies sent" 	0
scalar base.r29.networkLayer.arp 	"ARP resolutions" 	0
scalar base.r29.networkLayer.arp 	"failed ARP resolutions" 	0
scalar base.r29.ppp[0].queue 	"packets received by queue" 	0
scalar base.r29.ppp[0].queue 	"packets dropped by queue" 	0
scalar base.r29.ppp[1].queue 	"packets received by queue" 	0
scalar base.r29.ppp[1].queue 	"packets dropped by queue" 	0
scalar base.r30.networkLayer.arp 	"ARP requests sent" 	0
scalar base.r30.networkLayer.arp 	"ARP replies sent" 	0
scalar base.r30.networkLayer.arp 	"ARP resolutions" 	0
scalar base.r30.networkLayer.arp 	"failed ARP resolutions" 	0
scalar base.r30.ppp[0].queue 	"packets received by queue" 	0
scalar base.r30.ppp[0].queue 	"packets dropped by queue" 	0
scalar base.r31.networkLayer.arp 	"ARP requests sent" 	0
scalar base.r31.networkLayer.arp 	"ARP replies sent" 	0
scalar base.r31.networkLayer.arp 	"ARP resolutions" 	0
scalar base.r31.networkLayer.arp 	"failed ARP resolutions" 	0
scalar base.r31.ppp[0].queue 	"packets received by queue" 	0
scalar base.r31.ppp[0].queue 	"packets dropped by queue" 	0
scalar base.r31.ppp[1].queue 	"packets received by queue" 	0
scalar base.r31.ppp[1].queue 	"packets dropped by queue" 	0
scalar base.r31.ppp[2].queue 	"packets received by queue" 	0
scalar base.r31.ppp[2].queue 	"packets dropped by queue" 	0
scalar base.r31.ppp[3].queue 	"packets received by queue" 	612
scalar base.r31.ppp[3].queue 	"packets dropped by queue" 	0
scalar base.r31.ppp[4].queue 	"packets received by queue" 	146
scalar base.r31.ppp[4].queue 	"packets dropped by queue" 	0
scalar base.r31.ppp[5].queue 	"packets received by queue" 	82
scalar base.r31.ppp[5].queue 	"packets dropped by queue" 	0
scalar base.r32.networkLayer.arp 	"ARP requests sent" 	0
scalar base.r32.networkLayer.arp 	"ARP replies sent" 	0
scalar base.r32.networkLayer.arp 	"ARP resolutions" 	0
scalar base.r32.networkLayer.arp 	"failed ARP resolutions" 	0
scalar base.r32.ppp[0].queue 	"packets received by queue" 	0
scalar base.r32.ppp[0].queue 	"packets dropped by queue" 	0
scalar base.r32.ppp[1].queue 	"packets received by queue" 	1
scalar base.r32.ppp[1].queue 	"packets dropped by queue" 	0
scalar base.r32.ppp[2].queue 	"packets received by queue" 	35
scalar base.r32.ppp[2].queue 	"packets dropped by queue" 	0
scalar base.r32.ppp[3].queue 	"packets received by queue" 	26
scalar base.r32.ppp[3].queue 	"packets dropped by queue" 	0
scalar base.r32.ppp[4].queue 	"packets received by queue" 	20
scalar base.r32.ppp[4].queue 	"packets dropped by queue" 	0
scalar base.r32.ppp[5].queue 	"packets received by queue" 	5
scalar base.r32.ppp[5].queue 	"packets dropped by queue" 	0
scalar base.r33.networkLayer.arp 	"ARP requests sent" 	0
scalar base.r33.networkLayer.arp 	"ARP replies sent" 	0
scalar base.r33.networkLayer.arp 	"ARP resolutions" 	0
scalar base.r33.networkLayer.arp 	"failed ARP resolutions" 	0
scalar base.r33.ppp[0].queue 	"packets received by queue" 	1
scalar base.r33.ppp[0].queue 	"packets dropped by queue" 	0
scalar base.r33.ppp[1].queue 	"packets received by queue" 	0
scalar base.r33.ppp[1].queue 	"packets dropped by queue" 	0
scalar base.r33.ppp[2].queue 	"packets received by queue" 	0
scalar base.r33.ppp[2].queue 	"packets dropped by queue" 	0
scalar base.r33.ppp[3].queue 	"packets received by queue" 	0
scalar base.r33.ppp[3].queue 	"packets dropped by queue" 	0
scalar base.r33.ppp[4].queue 	"packets received by queue" 	944
scalar base.r33.ppp[4].queue 	"packets dropped by queue" 	0
scalar base.r33.ppp[5].queue 	"packets received by queue" 	0
scalar base.r33.ppp[5].queue 	"packets dropped by queue" 	0
scalar base.r33.ppp[6].queue 	"packets received by queue" 	1
scalar base.r33.ppp[6].queue 	"packets dropped by queue" 	0
scalar base.r33.ppp[7].queue 	"packets received by queue" 	2
scalar base.r33.ppp[7].queue 	"packets dropped by queue" 	0
scalar base.r33.ppp[8].queue 	"packets received by queue" 	0
scalar base.r33.ppp[8].queue 	"packets dropped by queue" 	0
scalar base.r33.ppp[9].queue 	"packets received by queue" 	0
scalar base.r33.ppp[9].queue 	"packets dropped by queue" 	0
scalar base.r33.ppp[10].queue 	"packets received by queue" 	9
scalar base.r33.ppp[10].queue 	"packets dropped by queue" 	0
scalar base.r33.ppp[11].queue 	"packets received by queue" 	5
scalar base.r33.ppp[11].queue 	"packets dropped by queue" 	0
scalar base.r33.ppp[12].queue 	"packets received by queue" 	4
scalar base.r33.ppp[12].queue 	"packets dropped by queue" 	0
scalar base.r33.ppp[13].queue 	"packets received by queue" 	6
scalar base.r33.ppp[13].queue 	"packets dropped by queue" 	0
scalar base.r33.ppp[14].queue 	"packets received by queue" 	6
scalar base.r33.ppp[14].queue 	"packets dropped by queue" 	0
scalar base.r33.ppp[15].queue 	"packets received by queue" 	3
scalar base.r33.ppp[15].queue 	"packets dropped by queue" 	0
scalar base.r33.ppp[16].queue 	"packets received by queue" 	3
scalar base.r33.ppp[16].queue 	"packets dropped by queue" 	0
scalar base.r33.ppp[17].queue 	"packets received by queue" 	4
scalar base.r33.ppp[17].queue 	"packets dropped by queue" 	0
scalar base.r33.ppp[18].queue 	"packets received by queue" 	1
scalar base.r33.ppp[18].queue 	"packets dropped by queue" 	0
scalar base.r33.ppp[19].queue 	"packets received by queue" 	0
scalar base.r33.ppp[19].queue 	"packets dropped by queue" 	0
scalar base.r33.ppp[20].queue 	"packets received by queue" 	3
scalar base.r33.ppp[20].queue 	"packets dropped by queue" 	0
scalar base.r33.ppp[21].queue 	"packets received by queue" 	0
scalar base.r33.ppp[21].queue 	"packets dropped by queue" 	0
scalar base.r33.ppp[22].queue 	"packets received by queue" 	1
scalar base.r33.ppp[22].queue 	"packets dropped by queue" 	0
scalar base.r33.ppp[23].queue 	"packets received by queue" 	1
scalar base.r33.ppp[23].queue 	"packets dropped by queue" 	0
scalar base.r33.ppp[24].queue 	"packets received by queue" 	2
scalar base.r33.ppp[24].queue 	"packets dropped by queue" 	0
scalar base.r33.ppp[25].queue 	"packets received by queue" 	1
scalar base.r33.ppp[25].queue 	"packets dropped by queue" 	0
scalar base.r33.ppp[26].queue 	"packets received by queue" 	2
scalar base.r33.ppp[26].queue 	"packets dropped by queue" 	0
scalar base.r33.ppp[27].queue 	"packets received by queue" 	1
scalar base.r33.ppp[27].queue 	"packets dropped by queue" 	0
scalar base.r34.networkLayer.arp 	"ARP requests sent" 	0
scalar base.r34.networkLayer.arp 	"ARP replies sent" 	0
scalar base.r34.networkLayer.arp 	"ARP resolutions" 	0
scalar base.r34.networkLayer.arp 	"failed ARP resolutions" 	0
scalar base.r34.ppp[0].queue 	"packets received by queue" 	0
scalar base.r34.ppp[0].queue 	"packets dropped by queue" 	0
scalar base.r35.networkLayer.arp 	"ARP requests sent" 	0
scalar base.r35.networkLayer.arp 	"ARP replies sent" 	0
scalar base.r35.networkLayer.arp 	"ARP resolutions" 	0
scalar base.r35.networkLayer.arp 	"failed ARP resolutions" 	0
scalar base.r35.ppp[0].queue 	"packets received by queue" 	0
scalar base.r35.ppp[0].queue 	"packets dropped by queue" 	0
scalar base.r35.ppp[1].queue 	"packets received by queue" 	0
scalar base.r35.ppp[1].queue 	"packets dropped by queue" 	0
scalar base.r36.networkLayer.arp 	"ARP requests sent" 	0
scalar base.r36.networkLayer.arp 	"ARP replies sent" 	0
scalar base.r36.networkLayer.arp 	"ARP resolutions" 	0
scalar base.r36.networkLayer.arp 	"failed ARP resolutions" 	0
scalar base.r36.ppp[0].queue 	"packets received by queue" 	0
scalar base.r36.ppp[0].queue 	"packets dropped by queue" 	0
scalar base.r37.networkLayer.arp 	"ARP requests sent" 	0
scalar base.r37.networkLayer.arp 	"ARP replies sent" 	0
scalar base.r37.networkLayer.arp 	"ARP resolutions" 	0
scalar base.r37.networkLayer.arp 	"failed ARP resolutions" 	0
scalar base.r37.ppp[0].queue 	"packets received by queue" 	0
scalar base.r37.ppp[0].queue 	"packets dropped by queue" 	0
scalar base.r38.networkLayer.arp 	"ARP requests sent" 	0
scalar base.r38.networkLayer.arp 	"ARP replies sent" 	0
scalar base.r38.networkLayer.arp 	"ARP resolutions" 	0
scalar base.r38.networkLayer.arp 	"failed ARP resolutions" 	0
scalar base.r38.ppp[0].queue 	"packets received by queue" 	0
scalar base.r38.ppp[0].queue 	"packets dropped by queue" 	0
scalar base.r39.networkLayer.arp 	"ARP requests sent" 	0
scalar base.r39.networkLayer.arp 	"ARP replies sent" 	0
scalar base.r39.networkLayer.arp 	"ARP resolutions" 	0
scalar base.r39.networkLayer.arp 	"failed ARP resolutions" 	0
scalar base.r39.ppp[0].queue 	"packets received by queue" 	87
scalar base.r39.ppp[0].queue 	"packets dropped by queue" 	0
scalar base.r39.ppp[1].queue 	"packets received by queue" 	0
scalar base.r39.ppp[1].queue 	"packets dropped by queue" 	0
scalar base.r39.ppp[2].queue 	"packets received by queue" 	846
scalar base.r39.ppp[2].queue 	"packets dropped by queue" 	0
scalar base.r39.ppp[3].queue 	"packets received by queue" 	2
scalar base.r39.ppp[3].queue 	"packets dropped by queue" 	0
scalar base.r39.ppp[4].queue 	"packets received by queue" 	0
scalar base.r39.ppp[4].queue 	"packets dropped by queue" 	0
scalar base.r39.ppp[5].queue 	"packets received by queue" 	0
scalar base.r39.ppp[5].queue 	"packets dropped by queue" 	0
scalar base.r39.ppp[6].queue 	"packets received by queue" 	0
scalar base.r39.ppp[6].queue 	"packets dropped by queue" 	0
scalar base.r39.ppp[7].queue 	"packets received by queue" 	0
scalar base.r39.ppp[7].queue 	"packets dropped by queue" 	0
scalar base.r39.ppp[8].queue 	"packets received by queue" 	0
scalar base.r39.ppp[8].queue 	"packets dropped by queue" 	0
scalar base.r39.ppp[9].queue 	"packets received by queue" 	0
scalar base.r39.ppp[9].queue 	"packets dropped by queue" 	0
scalar base.r39.ppp[10].queue 	"packets received by queue" 	1
scalar base.r39.ppp[10].queue 	"packets dropped by queue" 	0
scalar base.r39.ppp[11].queue 	"packets received by queue" 	4
scalar base.r39.ppp[11].queue 	"packets dropped by queue" 	0
scalar base.r39.ppp[12].queue 	"packets received by queue" 	0
scalar base.r39.ppp[12].queue 	"packets dropped by queue" 	0
scalar base.r39.ppp[13].queue 	"packets received by queue" 	1
scalar base.r39.ppp[13].queue 	"packets dropped by queue" 	0
scalar base.r39.ppp[14].queue 	"packets received by queue" 	0
scalar base.r39.ppp[14].queue 	"packets dropped by queue" 	0
scalar base.r39.ppp[15].queue 	"packets received by queue" 	0
scalar base.r39.ppp[15].queue 	"packets dropped by queue" 	0
scalar base.r39.ppp[16].queue 	"packets received by queue" 	1
scalar base.r39.ppp[16].queue 	"packets dropped by queue" 	0
scalar base.r39.ppp[17].queue 	"packets received by queue" 	1
scalar base.r39.ppp[17].queue 	"packets dropped by queue" 	0
scalar base.r39.ppp[18].queue 	"packets received by queue" 	0
scalar base.r39.ppp[18].queue 	"packets dropped by queue" 	0
scalar base.r39.ppp[19].queue 	"packets received by queue" 	1
scalar base.r39.ppp[19].queue 	"packets dropped by queue" 	0
scalar base.r39.ppp[20].queue 	"packets received by queue" 	0
scalar base.r39.ppp[20].queue 	"packets dropped by queue" 	0
scalar base.r40.networkLayer.arp 	"ARP requests sent" 	0
scalar base.r40.networkLayer.arp 	"ARP replies sent" 	0
scalar base.r40.networkLayer.arp 	"ARP resolutions" 	0
scalar base.r40.networkLayer.arp 	"failed ARP resolutions" 	0
scalar base.r40.ppp[0].queue 	"packets received by queue" 	0
scalar base.r40.ppp[0].queue 	"packets dropped by queue" 	0
scalar base.r41.networkLayer.arp 	"ARP requests sent" 	0
scalar base.r41.networkLayer.arp 	"ARP replies sent" 	0
scalar base.r41.networkLayer.arp 	"ARP resolutions" 	0
scalar base.r41.networkLayer.arp 	"failed ARP resolutions" 	0
scalar base.r41.ppp[0].queue 	"packets received by queue" 	0
scalar base.r41.ppp[0].queue 	"packets dropped by queue" 	0
scalar base.r42.networkLayer.arp 	"ARP requests sent" 	0
scalar base.r42.networkLayer.arp 	"ARP replies sent" 	0
scalar base.r42.networkLayer.arp 	"ARP resolutions" 	0
scalar base.r42.networkLayer.arp 	"failed ARP resolutions" 	0
scalar base.r42.ppp[0].queue 	"packets received by queue" 	0
scalar base.r42.ppp[0].queue 	"packets dropped by queue" 	0
scalar base.r42.ppp[1].queue 	"packets received by queue" 	0
scalar base.r42.ppp[1].queue 	"packets dropped by queue" 	0
scalar base.r42.ppp[2].queue 	"packets received by queue" 	0
scalar base.r42.ppp[2].queue 	"packets dropped by queue" 	0
scalar base.r42.ppp[3].queue 	"packets received by queue" 	0
scalar base.r42.ppp[3].queue 	"packets dropped by queue" 	0
scalar base.r42.ppp[4].queue 	"packets received by queue" 	1
scalar base.r42.ppp[4].queue 	"packets dropped by queue" 	0
scalar base.r42.ppp[5].queue 	"packets received by queue" 	0
scalar base.r42.ppp[5].queue 	"packets dropped by queue" 	0
scalar base.r43.networkLayer.arp 	"ARP requests sent" 	0
scalar base.r43.networkLayer.arp 	"ARP replies sent" 	0
scalar base.r43.networkLayer.arp 	"ARP resolutions" 	0
scalar base.r43.networkLayer.arp 	"failed ARP resolutions" 	0
scalar base.r43.ppp[0].queue 	"packets received by queue" 	0
scalar base.r43.ppp[0].queue 	"packets dropped by queue" 	0
scalar base.r43.ppp[1].queue 	"packets received by queue" 	0
scalar base.r43.ppp[1].queue 	"packets dropped by queue" 	0
scalar base.r43.ppp[2].queue 	"packets received by queue" 	0
scalar base.r43.ppp[2].queue 	"packets dropped by queue" 	0
scalar base.r43.ppp[3].queue 	"packets received by queue" 	0
scalar base.r43.ppp[3].queue 	"packets dropped by queue" 	0
scalar base.r43.ppp[4].queue 	"packets received by queue" 	0
scalar base.r43.ppp[4].queue 	"packets dropped by queue" 	0
scalar base.r43.ppp[5].queue 	"packets received by queue" 	0
scalar base.r43.ppp[5].queue 	"packets dropped by queue" 	0
scalar base.r43.ppp[6].queue 	"packets received by queue" 	1
scalar base.r43.ppp[6].queue 	"packets dropped by queue" 	0
scalar base.r43.ppp[7].queue 	"packets received by queue" 	0
scalar base.r43.ppp[7].queue 	"packets dropped by queue" 	0
scalar base.r44.networkLayer.arp 	"ARP requests sent" 	0
scalar base.r44.networkLayer.arp 	"ARP replies sent" 	0
scalar base.r44.networkLayer.arp 	"ARP resolutions" 	0
scalar base.r44.networkLayer.arp 	"failed ARP resolutions" 	0
scalar base.r44.ppp[0].queue 	"packets received by queue" 	0
scalar base.r44.ppp[0].queue 	"packets dropped by queue" 	0
scalar base.r45.networkLayer.arp 	"ARP requests sent" 	0
scalar base.r45.networkLayer.arp 	"ARP replies sent" 	0
scalar base.r45.networkLayer.arp 	"ARP resolutions" 	0
scalar base.r45.networkLayer.arp 	"failed ARP resolutions" 	0
scalar base.r45.ppp[0].queue 	"packets received by queue" 	0
scalar base.r45.ppp[0].queue 	"packets dropped by queue" 	0
scalar base.r46.networkLayer.arp 	"ARP requests sent" 	0
scalar base.r46.networkLayer.arp 	"ARP replies sent" 	0
scalar base.r46.networkLayer.arp 	"ARP resolutions" 	0
scalar base.r46.networkLayer.arp 	"failed ARP resolutions" 	0
scalar base.r46.ppp[0].queue 	"packets received by queue" 	0
scalar base.r46.ppp[0].queue 	"packets dropped by queue" 	0
scalar base.r47.networkLayer.arp 	"ARP requests sent" 	0
scalar base.r47.networkLayer.arp 	"ARP replies sent" 	0
scalar base.r47.networkLayer.arp 	"ARP resolutions" 	0
scalar base.r47.networkLayer.arp 	"failed ARP resolutions" 	0
scalar base.r47.ppp[0].queue 	"packets received by queue" 	1
scalar base.r47.ppp[0].queue 	"packets dropped by queue" 	0
scalar base.r47.ppp[1].queue 	"packets received by queue" 	840
scalar base.r47.ppp[1].queue 	"packets dropped by queue" 	0
scalar base.r47.ppp[2].queue 	"packets received by queue" 	0
scalar base.r47.ppp[2].queue 	"packets dropped by queue" 	0
scalar base.r47.ppp[3].queue 	"packets received by queue" 	0
scalar base.r47.ppp[3].queue 	"packets dropped by queue" 	0
scalar base.r47.ppp[4].queue 	"packets received by queue" 	0
scalar base.r47.ppp[4].queue 	"packets dropped by queue" 	0
scalar base.r47.ppp[5].queue 	"packets received by queue" 	0
scalar base.r47.ppp[5].queue 	"packets dropped by queue" 	0
scalar base.r47.ppp[6].queue 	"packets received by queue" 	0
scalar base.r47.ppp[6].queue 	"packets dropped by queue" 	0
scalar base.r47.ppp[7].queue 	"packets received by queue" 	0
scalar base.r47.ppp[7].queue 	"packets dropped by queue" 	0
scalar base.r47.ppp[8].queue 	"packets received by queue" 	0
scalar base.r47.ppp[8].queue 	"packets dropped by queue" 	0
scalar base.r47.ppp[9].queue 	"packets received by queue" 	0
scalar base.r47.ppp[9].queue 	"packets dropped by queue" 	0
scalar base.r47.ppp[10].queue 	"packets received by queue" 	0
scalar base.r47.ppp[10].queue 	"packets dropped by queue" 	0
scalar base.r47.ppp[11].queue 	"packets received by queue" 	0
scalar base.r47.ppp[11].queue 	"packets dropped by queue" 	0
scalar base.r47.ppp[12].queue 	"packets received by queue" 	0
scalar base.r47.ppp[12].queue 	"packets dropped by queue" 	0
scalar base.r47.ppp[13].queue 	"packets received by queue" 	0
scalar base.r47.ppp[13].queue 	"packets dropped by queue" 	0
scalar base.r47.ppp[14].queue 	"packets received by queue" 	0
scalar base.r47.ppp[14].queue 	"packets dropped by queue" 	0
scalar base.r47.ppp[15].queue 	"packets received by queue" 	0
scalar base.r47.ppp[15].queue 	"packets dropped by queue" 	0
scalar base.r47.ppp[16].queue 	"packets received by queue" 	0
scalar base.r47.ppp[16].queue 	"packets dropped by queue" 	0
scalar base.r47.ppp[17].queue 	"packets received by queue" 	0
scalar base.r47.ppp[17].queue 	"packets dropped by queue" 	0
scalar base.r47.ppp[18].queue 	"packets received by queue" 	0
scalar base.r47.ppp[18].queue 	"packets dropped by queue" 	0
scalar base.r47.ppp[19].queue 	"packets received by queue" 	1
scalar base.r47.ppp[19].queue 	"packets dropped by queue" 	0
scalar base.r47.ppp[20].queue 	"packets received by queue" 	1
scalar base.r47.ppp[20].queue 	"packets dropped by queue" 	0
scalar base.r47.ppp[21].queue 	"packets received by queue" 	0
scalar base.r47.ppp[21].queue 	"packets dropped by queue" 	0
scalar base.r47.ppp[22].queue 	"packets received by queue" 	0
scalar base.r47.ppp[22].queue 	"packets dropped by queue" 	0
scalar base.r47.ppp[23].queue 	"packets received by queue" 	0
scalar base.r47.ppp[23].queue 	"packets dropped by queue" 	0
scalar base.r47.ppp[24].queue 	"packets received by queue" 	1
scalar base.r47.ppp[24].queue 	"packets dropped by queue" 	0
scalar base.r47.ppp[25].queue 	"packets received by queue" 	2
scalar base.r47.ppp[25].queue 	"packets dropped by queue" 	0
scalar base.r47.ppp[26].queue 	"packets received by queue" 	0
scalar base.r47.ppp[26].queue 	"packets dropped by queue" 	0
scalar base.r48.networkLayer.arp 	"ARP requests sent" 	0
scalar base.r48.networkLayer.arp 	"ARP replies sent" 	0
scalar base.r48.networkLayer.arp 	"ARP resolutions" 	0
scalar base.r48.networkLayer.arp 	"failed ARP resolutions" 	0
scalar base.r48.ppp[0].queue 	"packets received by queue" 	0
scalar base.r48.ppp[0].queue 	"packets dropped by queue" 	0
scalar base.r49.networkLayer.arp 	"ARP requests sent" 	0
scalar base.r49.networkLayer.arp 	"ARP replies sent" 	0
scalar base.r49.networkLayer.arp 	"ARP resolutions" 	0
scalar base.r49.networkLayer.arp 	"failed ARP resolutions" 	0
scalar base.r49.ppp[0].queue 	"packets received by queue" 	0
scalar base.r49.ppp[0].queue 	"packets dropped by queue" 	0
scalar base.r49.ppp[1].queue 	"packets received by queue" 	1
scalar base.r49.ppp[1].queue 	"packets dropped by queue" 	0
scalar base.r49.ppp[2].queue 	"packets received by queue" 	0
scalar base.r49.ppp[2].queue 	"packets dropped by queue" 	0
scalar base.r49.ppp[3].queue 	"packets received by queue" 	0
scalar base.r49.ppp[3].queue 	"packets dropped by queue" 	0
scalar base.r49.ppp[4].queue 	"packets received by queue" 	0
scalar base.r49.ppp[4].queue 	"packets dropped by queue" 	0
scalar base.r49.ppp[5].queue 	"packets received by queue" 	0
scalar base.r49.ppp[5].queue 	"packets dropped by queue" 	0
scalar base.r50.networkLayer.arp 	"ARP requests sent" 	0
scalar base.r50.networkLayer.arp 	"ARP replies sent" 	0
scalar base.r50.networkLayer.arp 	"ARP resolutions" 	0
scalar base.r50.networkLayer.arp 	"failed ARP resolutions" 	0
scalar base.r50.ppp[0].queue 	"packets received by queue" 	0
scalar base.r50.ppp[0].queue 	"packets dropped by queue" 	0
scalar base.r50.ppp[1].queue 	"packets received by queue" 	0
scalar base.r50.ppp[1].queue 	"packets dropped by queue" 	0
scalar base.r50.ppp[2].queue 	"packets received by queue" 	1
scalar base.r50.ppp[2].queue 	"packets dropped by queue" 	0
scalar base.r50.ppp[3].queue 	"packets received by queue" 	0
scalar base.r50.ppp[3].queue 	"packets dropped by queue" 	0
scalar base.r50.ppp[4].queue 	"packets received by queue" 	0
scalar base.r50.ppp[4].queue 	"packets dropped by queue" 	0
scalar base.r50.ppp[5].queue 	"packets received by queue" 	0
scalar base.r50.ppp[5].queue 	"packets dropped by queue" 	0
scalar base.r51.networkLayer.arp 	"ARP requests sent" 	0
scalar base.r51.networkLayer.arp 	"ARP replies sent" 	0
scalar base.r51.networkLayer.arp 	"ARP resolutions" 	0
scalar base.r51.networkLayer.arp 	"failed ARP resolutions" 	0
scalar base.r51.ppp[0].queue 	"packets received by queue" 	0
scalar base.r51.ppp[0].queue 	"packets dropped by queue" 	0
scalar base.r51.ppp[1].queue 	"packets received by queue" 	0
scalar base.r51.ppp[1].queue 	"packets dropped by queue" 	0
scalar base.r51.ppp[2].queue 	"packets received by queue" 	0
scalar base.r51.ppp[2].queue 	"packets dropped by queue" 	0
scalar base.r51.ppp[3].queue 	"packets received by queue" 	1
scalar base.r51.ppp[3].queue 	"packets dropped by queue" 	0
scalar base.r51.ppp[4].queue 	"packets received by queue" 	0
scalar base.r51.ppp[4].queue 	"packets dropped by queue" 	0
scalar base.r51.ppp[5].queue 	"packets received by queue" 	0
scalar base.r51.ppp[5].queue 	"packets dropped by queue" 	0
scalar base.r51.ppp[6].queue 	"packets received by queue" 	0
scalar base.r51.ppp[6].queue 	"packets dropped by queue" 	0
scalar base.r51.ppp[7].queue 	"packets received by queue" 	0
scalar base.r51.ppp[7].queue 	"packets dropped by queue" 	0
scalar base.r51.ppp[8].queue 	"packets received by queue" 	0
scalar base.r51.ppp[8].queue 	"packets dropped by queue" 	0
scalar base.r51.ppp[9].queue 	"packets received by queue" 	0
scalar base.r51.ppp[9].queue 	"packets dropped by queue" 	0
scalar base.r51.ppp[10].queue 	"packets received by queue" 	0
scalar base.r51.ppp[10].queue 	"packets dropped by queue" 	0
scalar base.r51.ppp[11].queue 	"packets received by queue" 	0
scalar base.r51.ppp[11].queue 	"packets dropped by queue" 	0
scalar base.r51.ppp[12].queue 	"packets received by queue" 	0
scalar base.r51.ppp[12].queue 	"packets dropped by queue" 	0
scalar base.r51.ppp[13].queue 	"packets received by queue" 	0
scalar base.r51.ppp[13].queue 	"packets dropped by queue" 	0
scalar base.r51.ppp[14].queue 	"packets received by queue" 	1
scalar base.r51.ppp[14].queue 	"packets dropped by queue" 	0
scalar base.r51.ppp[15].queue 	"packets received by queue" 	0
scalar base.r51.ppp[15].queue 	"packets dropped by queue" 	0
scalar base.r51.ppp[16].queue 	"packets received by queue" 	0
scalar base.r51.ppp[16].queue 	"packets dropped by queue" 	0
scalar base.r51.ppp[17].queue 	"packets received by queue" 	0
scalar base.r51.ppp[17].queue 	"packets dropped by queue" 	0
scalar base.r51.ppp[18].queue 	"packets received by queue" 	0
scalar base.r51.ppp[18].queue 	"packets dropped by queue" 	0
scalar base.r51.ppp[19].queue 	"packets received by queue" 	0
scalar base.r51.ppp[19].queue 	"packets dropped by queue" 	0
scalar base.r51.ppp[20].queue 	"packets received by queue" 	0
scalar base.r51.ppp[20].queue 	"packets dropped by queue" 	0
scalar base.r51.ppp[21].queue 	"packets received by queue" 	0
scalar base.r51.ppp[21].queue 	"packets dropped by queue" 	0
scalar base.r51.ppp[22].queue 	"packets received by queue" 	0
scalar base.r51.ppp[22].queue 	"packets dropped by queue" 	0
scalar base.r51.ppp[23].queue 	"packets received by queue" 	0
scalar base.r51.ppp[23].queue 	"packets dropped by queue" 	0
scalar base.r52.networkLayer.arp 	"ARP requests sent" 	0
scalar base.r52.networkLayer.arp 	"ARP replies sent" 	0
scalar base.r52.networkLayer.arp 	"ARP resolutions" 	0
scalar base.r52.networkLayer.arp 	"failed ARP resolutions" 	0
scalar base.r52.ppp[0].queue 	"packets received by queue" 	0
scalar base.r52.ppp[0].queue 	"packets dropped by queue" 	0
scalar base.r53.networkLayer.arp 	"ARP requests sent" 	0
scalar base.r53.networkLayer.arp 	"ARP replies sent" 	0
scalar base.r53.networkLayer.arp 	"ARP resolutions" 	0
scalar base.r53.networkLayer.arp 	"failed ARP resolutions" 	0
scalar base.r53.ppp[0].queue 	"packets received by queue" 	0
scalar base.r53.ppp[0].queue 	"packets dropped by queue" 	0
scalar base.r54.networkLayer.arp 	"ARP requests sent" 	0
scalar base.r54.networkLayer.arp 	"ARP replies sent" 	0
scalar base.r54.networkLayer.arp 	"ARP resolutions" 	0
scalar base.r54.networkLayer.arp 	"failed ARP resolutions" 	0
scalar base.r54.ppp[0].queue 	"packets received by queue" 	0
scalar base.r54.ppp[0].queue 	"packets dropped by queue" 	0
scalar base.r54.ppp[1].queue 	"packets received by queue" 	1000
scalar base.r54.ppp[1].queue 	"packets dropped by queue" 	0
scalar base.r55.networkLayer.arp 	"ARP requests sent" 	0
scalar base.r55.networkLayer.arp 	"ARP replies sent" 	0
scalar base.r55.networkLayer.arp 	"ARP resolutions" 	0
scalar base.r55.networkLayer.arp 	"failed ARP resolutions" 	0
scalar base.r55.ppp[0].queue 	"packets received by queue" 	0
scalar base.r55.ppp[0].queue 	"packets dropped by queue" 	0
scalar base.r55.ppp[1].queue 	"packets received by queue" 	1000
scalar base.r55.ppp[1].queue 	"packets dropped by queue" 	0
scalar base.r56.networkLayer.arp 	"ARP requests sent" 	0
scalar base.r56.networkLayer.arp 	"ARP replies sent" 	0
scalar base.r56.networkLayer.arp 	"ARP resolutions" 	0
scalar base.r56.networkLayer.arp 	"failed ARP resolutions" 	0
scalar base.r56.ppp[0].queue 	"packets received by queue" 	1000
scalar base.r56.ppp[0].queue 	"packets dropped by queue" 	0
scalar base.r56.ppp[1].queue 	"packets received by queue" 	0
scalar base.r56.ppp[1].queue 	"packets dropped by queue" 	0
scalar base.c57.networkLayer.arp 	"ARP requests sent" 	0
scalar base.c57.networkLayer.arp 	"ARP replies sent" 	0
scalar base.c57.networkLayer.arp 	"ARP resolutions" 	0
scalar base.c57.networkLayer.arp 	"failed ARP resolutions" 	0
scalar base.c57.ppp[0].queue 	"packets received by queue" 	0
scalar base.c57.ppp[0].queue 	"packets dropped by queue" 	0
scalar base.c58.networkLayer.arp 	"ARP requests sent" 	0
scalar base.c58.networkLayer.arp 	"ARP replies sent" 	0
scalar base.c58.networkLayer.arp 	"ARP resolutions" 	0
scalar base.c58.networkLayer.arp 	"failed ARP resolutions" 	0
scalar base.c58.ppp[0].queue 	"packets received by queue" 	0
scalar base.c58.ppp[0].queue 	"packets dropped by queue" 	0
scalar base.c59.networkLayer.arp 	"ARP requests sent" 	0
scalar base.c59.networkLayer.arp 	"ARP replies sent" 	0
scalar base.c59.networkLayer.arp 	"ARP resolutions" 	0
scalar base.c59.networkLayer.arp 	"failed ARP resolutions" 	0
scalar base.c59.ppp[0].queue 	"packets received by queue" 	0
scalar base.c59.ppp[0].queue 	"packets dropped by queue" 	0
scalar base.c60.networkLayer.arp 	"ARP requests sent" 	0
scalar base.c60.networkLayer.arp 	"ARP replies sent" 	0
scalar base.c60.networkLayer.arp 	"ARP resolutions" 	0
scalar base.c60.networkLayer.arp 	"failed ARP resolutions" 	0
scalar base.c60.ppp[0].queue 	"packets received by queue" 	0
scalar base.c60.ppp[0].queue 	"packets dropped by queue" 	0
scalar base.c61.networkLayer.arp 	"ARP requests sent" 	0
scalar base.c61.networkLayer.arp 	"ARP replies sent" 	0
scalar base.c61.networkLayer.arp 	"ARP resolutions" 	0
scalar base.c61.networkLayer.arp 	"failed ARP resolutions" 	0
scalar base.c61.ppp[0].queue 	"packets received by queue" 	0
scalar base.c61.ppp[0].queue 	"packets dropped by queue" 	0
scalar base.c62.networkLayer.arp 	"ARP requests sent" 	0
scalar base.c62.networkLayer.arp 	"ARP replies sent" 	0
scalar base.c62.networkLayer.arp 	"ARP resolutions" 	0
scalar base.c62.networkLayer.arp 	"failed ARP resolutions" 	0
scalar base.c62.ppp[0].queue 	"packets received by queue" 	0
scalar base.c62.ppp[0].queue 	"packets dropped by queue" 	0
scalar base.c63.networkLayer.arp 	"ARP requests sent" 	0
scalar base.c63.networkLayer.arp 	"ARP replies sent" 	0
scalar base.c63.networkLayer.arp 	"ARP resolutions" 	0
scalar base.c63.networkLayer.arp 	"failed ARP resolutions" 	0
scalar base.c63.ppp[0].queue 	"packets received by queue" 	0
scalar base.c63.ppp[0].queue 	"packets dropped by queue" 	0
scalar base.c64.networkLayer.arp 	"ARP requests sent" 	0
scalar base.c64.networkLayer.arp 	"ARP replies sent" 	0
scalar base.c64.networkLayer.arp 	"ARP resolutions" 	0
scalar base.c64.networkLayer.arp 	"failed ARP resolutions" 	0
scalar base.c64.ppp[0].queue 	"packets received by queue" 	0
scalar base.c64.ppp[0].queue 	"packets dropped by queue" 	0
scalar base.c65.networkLayer.arp 	"ARP requests sent" 	0
scalar base.c65.networkLayer.arp 	"ARP replies sent" 	0
scalar base.c65.networkLayer.arp 	"ARP resolutions" 	0
scalar base.c65.networkLayer.arp 	"failed ARP resolutions" 	0
scalar base.c65.ppp[0].queue 	"packets received by queue" 	0
scalar base.c65.ppp[0].queue 	"packets dropped by queue" 	0
scalar base.c66.networkLayer.arp 	"ARP requests sent" 	0
scalar base.c66.networkLayer.arp 	"ARP replies sent" 	0
scalar base.c66.networkLayer.arp 	"ARP resolutions" 	0
scalar base.c66.networkLayer.arp 	"failed ARP resolutions" 	0
scalar base.c66.ppp[0].queue 	"packets received by queue" 	0
scalar base.c66.ppp[0].queue 	"packets dropped by queue" 	0
scalar base.c67.networkLayer.arp 	"ARP requests sent" 	0
scalar base.c67.networkLayer.arp 	"ARP replies sent" 	0
scalar base.c67.networkLayer.arp 	"ARP resolutions" 	0
scalar base.c67.networkLayer.arp 	"failed ARP resolutions" 	0
scalar base.c67.ppp[0].queue 	"packets received by queue" 	0
scalar base.c67.ppp[0].queue 	"packets dropped by queue" 	0
scalar base.c68.networkLayer.arp 	"ARP requests sent" 	0
scalar base.c68.networkLayer.arp 	"ARP replies sent" 	0
scalar base.c68.networkLayer.arp 	"ARP resolutions" 	0
scalar base.c68.networkLayer.arp 	"failed ARP resolutions" 	0
scalar base.c68.ppp[0].queue 	"packets received by queue" 	0
scalar base.c68.ppp[0].queue 	"packets dropped by queue" 	0
scalar base.c69.networkLayer.arp 	"ARP requests sent" 	0
scalar base.c69.networkLayer.arp 	"ARP replies sent" 	0
scalar base.c69.networkLayer.arp 	"ARP resolutions" 	0
scalar base.c69.networkLayer.arp 	"failed ARP resolutions" 	0
scalar base.c69.ppp[0].queue 	"packets received by queue" 	0
scalar base.c69.ppp[0].queue 	"packets dropped by queue" 	0
scalar base.c70.networkLayer.arp 	"ARP requests sent" 	0
scalar base.c70.networkLayer.arp 	"ARP replies sent" 	0
scalar base.c70.networkLayer.arp 	"ARP resolutions" 	0
scalar base.c70.networkLayer.arp 	"failed ARP resolutions" 	0
scalar base.c70.ppp[0].queue 	"packets received by queue" 	0
scalar base.c70.ppp[0].queue 	"packets dropped by queue" 	0
scalar base.c71.networkLayer.arp 	"ARP requests sent" 	0
scalar base.c71.networkLayer.arp 	"ARP replies sent" 	0
scalar base.c71.networkLayer.arp 	"ARP resolutions" 	0
scalar base.c71.networkLayer.arp 	"failed ARP resolutions" 	0
scalar base.c71.ppp[0].queue 	"packets received by queue" 	0
scalar base.c71.ppp[0].queue 	"packets dropped by queue" 	0
scalar base.c72.networkLayer.arp 	"ARP requests sent" 	0
scalar base.c72.networkLayer.arp 	"ARP replies sent" 	0
scalar base.c72.networkLayer.arp 	"ARP resolutions" 	0
scalar base.c72.networkLayer.arp 	"failed ARP resolutions" 	0
scalar base.c72.ppp[0].queue 	"packets received by queue" 	0
scalar base.c72.ppp[0].queue 	"packets dropped by queue" 	0
scalar base.c73.networkLayer.arp 	"ARP requests sent" 	0
scalar base.c73.networkLayer.arp 	"ARP replies sent" 	0
scalar base.c73.networkLayer.arp 	"ARP resolutions" 	0
scalar base.c73.networkLayer.arp 	"failed ARP resolutions" 	0
scalar base.c73.ppp[0].queue 	"packets received by queue" 	0
scalar base.c73.ppp[0].queue 	"packets dropped by queue" 	0
scalar base.c74.networkLayer.arp 	"ARP requests sent" 	0
scalar base.c74.networkLayer.arp 	"ARP replies sent" 	0
scalar base.c74.networkLayer.arp 	"ARP resolutions" 	0
scalar base.c74.networkLayer.arp 	"failed ARP resolutions" 	0
scalar base.c74.ppp[0].queue 	"packets received by queue" 	0
scalar base.c74.ppp[0].queue 	"packets dropped by queue" 	0
scalar base.c75.networkLayer.arp 	"ARP requests sent" 	0
scalar base.c75.networkLayer.arp 	"ARP replies sent" 	0
scalar base.c75.networkLayer.arp 	"ARP resolutions" 	0
scalar base.c75.networkLayer.arp 	"failed ARP resolutions" 	0
scalar base.c75.ppp[0].queue 	"packets received by queue" 	0
scalar base.c75.ppp[0].queue 	"packets dropped by queue" 	0
scalar base.c76.networkLayer.arp 	"ARP requests sent" 	0
scalar base.c76.networkLayer.arp 	"ARP replies sent" 	0
scalar base.c76.networkLayer.arp 	"ARP resolutions" 	0
scalar base.c76.networkLayer.arp 	"failed ARP resolutions" 	0
scalar base.c76.ppp[0].queue 	"packets received by queue" 	0
scalar base.c76.ppp[0].queue 	"packets dropped by queue" 	0
scalar base.c77.networkLayer.arp 	"ARP requests sent" 	0
scalar base.c77.networkLayer.arp 	"ARP replies sent" 	0
scalar base.c77.networkLayer.arp 	"ARP resolutions" 	0
scalar base.c77.networkLayer.arp 	"failed ARP resolutions" 	0
scalar base.c77.ppp[0].queue 	"packets received by queue" 	0
scalar base.c77.ppp[0].queue 	"packets dropped by queue" 	0
scalar base.c78.networkLayer.arp 	"ARP requests sent" 	0
scalar base.c78.networkLayer.arp 	"ARP replies sent" 	0
scalar base.c78.networkLayer.arp 	"ARP resolutions" 	0
scalar base.c78.networkLayer.arp 	"failed ARP resolutions" 	0
scalar base.c78.ppp[0].queue 	"packets received by queue" 	0
scalar base.c78.ppp[0].queue 	"packets dropped by queue" 	0
scalar base.c79.networkLayer.arp 	"ARP requests sent" 	0
scalar base.c79.networkLayer.arp 	"ARP replies sent" 	0
scalar base.c79.networkLayer.arp 	"ARP resolutions" 	0
scalar base.c79.networkLayer.arp 	"failed ARP resolutions" 	0
scalar base.c79.ppp[0].queue 	"packets received by queue" 	0
scalar base.c79.ppp[0].queue 	"packets dropped by queue" 	0
scalar base.c80.networkLayer.arp 	"ARP requests sent" 	0
scalar base.c80.networkLayer.arp 	"ARP replies sent" 	0
scalar base.c80.networkLayer.arp 	"ARP resolutions" 	0
scalar base.c80.networkLayer.arp 	"failed ARP resolutions" 	0
scalar base.c80.ppp[0].queue 	"packets received by queue" 	0
scalar base.c80.ppp[0].queue 	"packets dropped by queue" 	0
scalar base.c81.networkLayer.arp 	"ARP requests sent" 	0
scalar base.c81.networkLayer.arp 	"ARP replies sent" 	0
scalar base.c81.networkLayer.arp 	"ARP resolutions" 	0
scalar base.c81.networkLayer.arp 	"failed ARP resolutions" 	0
scalar base.c81.ppp[0].queue 	"packets received by queue" 	0
scalar base.c81.ppp[0].queue 	"packets dropped by queue" 	0
scalar base.c82.networkLayer.arp 	"ARP requests sent" 	0
scalar base.c82.networkLayer.arp 	"ARP replies sent" 	0
scalar base.c82.networkLayer.arp 	"ARP resolutions" 	0
scalar base.c82.networkLayer.arp 	"failed ARP resolutions" 	0
scalar base.c82.ppp[0].queue 	"packets received by queue" 	0
scalar base.c82.ppp[0].queue 	"packets dropped by queue" 	0
scalar base.c83.networkLayer.arp 	"ARP requests sent" 	0
scalar base.c83.networkLayer.arp 	"ARP replies sent" 	0
scalar base.c83.networkLayer.arp 	"ARP resolutions" 	0
scalar base.c83.networkLayer.arp 	"failed ARP resolutions" 	0
scalar base.c83.ppp[0].queue 	"packets received by queue" 	0
scalar base.c83.ppp[0].queue 	"packets dropped by queue" 	0
scalar base.c84.networkLayer.arp 	"ARP requests sent" 	0
scalar base.c84.networkLayer.arp 	"ARP replies sent" 	0
scalar base.c84.networkLayer.arp 	"ARP resolutions" 	0
scalar base.c84.networkLayer.arp 	"failed ARP resolutions" 	0
scalar base.c84.ppp[0].queue 	"packets received by queue" 	0
scalar base.c84.ppp[0].queue 	"packets dropped by queue" 	0
scalar base.c85.networkLayer.arp 	"ARP requests sent" 	0
scalar base.c85.networkLayer.arp 	"ARP replies sent" 	0
scalar base.c85.networkLayer.arp 	"ARP resolutions" 	0
scalar base.c85.networkLayer.arp 	"failed ARP resolutions" 	0
scalar base.c85.ppp[0].queue 	"packets received by queue" 	0
scalar base.c85.ppp[0].queue 	"packets dropped by queue" 	0
scalar base.c86.networkLayer.arp 	"ARP requests sent" 	0
scalar base.c86.networkLayer.arp 	"ARP replies sent" 	0
scalar base.c86.networkLayer.arp 	"ARP resolutions" 	0
scalar base.c86.networkLayer.arp 	"failed ARP resolutions" 	0
scalar base.c86.ppp[0].queue 	"packets received by queue" 	0
scalar base.c86.ppp[0].queue 	"packets dropped by queue" 	0
scalar base.c87.networkLayer.arp 	"ARP requests sent" 	0
scalar base.c87.networkLayer.arp 	"ARP replies sent" 	0
scalar base.c87.networkLayer.arp 	"ARP resolutions" 	0
scalar base.c87.networkLayer.arp 	"failed ARP resolutions" 	0
scalar base.c87.ppp[0].queue 	"packets received by queue" 	0
scalar base.c87.ppp[0].queue 	"packets dropped by queue" 	0
scalar base.c88.networkLayer.arp 	"ARP requests sent" 	0
scalar base.c88.networkLayer.arp 	"ARP replies sent" 	0
scalar base.c88.networkLayer.arp 	"ARP resolutions" 	0
scalar base.c88.networkLayer.arp 	"failed ARP resolutions" 	0
scalar base.c88.ppp[0].queue 	"packets received by queue" 	0
scalar base.c88.ppp[0].queue 	"packets dropped by queue" 	0
scalar base.c89.networkLayer.arp 	"ARP requests sent" 	0
scalar base.c89.networkLayer.arp 	"ARP replies sent" 	0
scalar base.c89.networkLayer.arp 	"ARP resolutions" 	0
scalar base.c89.networkLayer.arp 	"failed ARP resolutions" 	0
scalar base.c89.ppp[0].queue 	"packets received by queue" 	0
scalar base.c89.ppp[0].queue 	"packets dropped by queue" 	0
scalar base.c90.networkLayer.arp 	"ARP requests sent" 	0
scalar base.c90.networkLayer.arp 	"ARP replies sent" 	0
scalar base.c90.networkLayer.arp 	"ARP resolutions" 	0
scalar base.c90.networkLayer.arp 	"failed ARP resolutions" 	0
scalar base.c90.ppp[0].queue 	"packets received by queue" 	0
scalar base.c90.ppp[0].queue 	"packets dropped by queue" 	0
scalar base.c91.networkLayer.arp 	"ARP requests sent" 	0
scalar base.c91.networkLayer.arp 	"ARP replies sent" 	0
scalar base.c91.networkLayer.arp 	"ARP resolutions" 	0
scalar base.c91.networkLayer.arp 	"failed ARP resolutions" 	0
scalar base.c91.ppp[0].queue 	"packets received by queue" 	0
scalar base.c91.ppp[0].queue 	"packets dropped by queue" 	0
scalar base.c92.networkLayer.arp 	"ARP requests sent" 	0
scalar base.c92.networkLayer.arp 	"ARP replies sent" 	0
scalar base.c92.networkLayer.arp 	"ARP resolutions" 	0
scalar base.c92.networkLayer.arp 	"failed ARP resolutions" 	0
scalar base.c92.ppp[0].queue 	"packets received by queue" 	0
scalar base.c92.ppp[0].queue 	"packets dropped by queue" 	0
scalar base.c93.networkLayer.arp 	"ARP requests sent" 	0
scalar base.c93.networkLayer.arp 	"ARP replies sent" 	0
scalar base.c93.networkLayer.arp 	"ARP resolutions" 	0
scalar base.c93.networkLayer.arp 	"failed ARP resolutions" 	0
scalar base.c93.ppp[0].queue 	"packets received by queue" 	0
scalar base.c93.ppp[0].queue 	"packets dropped by queue" 	0
scalar base.c94.networkLayer.arp 	"ARP requests sent" 	0
scalar base.c94.networkLayer.arp 	"ARP replies sent" 	0
scalar base.c94.networkLayer.arp 	"ARP resolutions" 	0
scalar base.c94.networkLayer.arp 	"failed ARP resolutions" 	0
scalar base.c94.ppp[0].queue 	"packets received by queue" 	0
scalar base.c94.ppp[0].queue 	"packets dropped by queue" 	0
scalar base.c95.networkLayer.arp 	"ARP requests sent" 	0
scalar base.c95.networkLayer.arp 	"ARP replies sent" 	0
scalar base.c95.networkLayer.arp 	"ARP resolutions" 	0
scalar base.c95.networkLayer.arp 	"failed ARP resolutions" 	0
scalar base.c95.ppp[0].queue 	"packets received by queue" 	0
scalar base.c95.ppp[0].queue 	"packets dropped by queue" 	0
scalar base.c96.networkLayer.arp 	"ARP requests sent" 	0
scalar base.c96.networkLayer.arp 	"ARP replies sent" 	0
scalar base.c96.networkLayer.arp 	"ARP resolutions" 	0
scalar base.c96.networkLayer.arp 	"failed ARP resolutions" 	0
scalar base.c96.ppp[0].queue 	"packets received by queue" 	0
scalar base.c96.ppp[0].queue 	"packets dropped by queue" 	0
scalar base.c97.networkLayer.arp 	"ARP requests sent" 	0
scalar base.c97.networkLayer.arp 	"ARP replies sent" 	0
scalar base.c97.networkLayer.arp 	"ARP resolutions" 	0
scalar base.c97.networkLayer.arp 	"failed ARP resolutions" 	0
scalar base.c97.ppp[0].queue 	"packets received by queue" 	0
scalar base.c97.ppp[0].queue 	"packets dropped by queue" 	0
scalar base.c98.networkLayer.arp 	"ARP requests sent" 	0
scalar base.c98.networkLayer.arp 	"ARP replies sent" 	0
scalar base.c98.networkLayer.arp 	"ARP resolutions" 	0
scalar base.c98.networkLayer.arp 	"failed ARP resolutions" 	0
scalar base.c98.ppp[0].queue 	"packets received by queue" 	0
scalar base.c98.ppp[0].queue 	"packets dropped by queue" 	0
scalar base.c99.networkLayer.arp 	"ARP requests sent" 	0
scalar base.c99.networkLayer.arp 	"ARP replies sent" 	0
scalar base.c99.networkLayer.arp 	"ARP resolutions" 	0
scalar base.c99.networkLayer.arp 	"failed ARP resolutions" 	0
scalar base.c99.ppp[0].queue 	"packets received by queue" 	0
scalar base.c99.ppp[0].queue 	"packets dropped by queue" 	0
scalar base.c100.networkLayer.arp 	"ARP requests sent" 	0
scalar base.c100.networkLayer.arp 	"ARP replies sent" 	0
scalar base.c100.networkLayer.arp 	"ARP resolutions" 	0
scalar base.c100.networkLayer.arp 	"failed ARP resolutions" 	0
scalar base.c100.ppp[0].queue 	"packets received by queue" 	0
scalar base.c100.ppp[0].queue 	"packets dropped by queue" 	0
scalar base.c101.networkLayer.arp 	"ARP requests sent" 	0
scalar base.c101.networkLayer.arp 	"ARP replies sent" 	0
scalar base.c101.networkLayer.arp 	"ARP resolutions" 	0
scalar base.c101.networkLayer.arp 	"failed ARP resolutions" 	0
scalar base.c101.ppp[0].queue 	"packets received by queue" 	0
scalar base.c101.ppp[0].queue 	"packets dropped by queue" 	0
scalar base.c102.networkLayer.arp 	"ARP requests sent" 	0
scalar base.c102.networkLayer.arp 	"ARP replies sent" 	0
scalar base.c102.networkLayer.arp 	"ARP resolutions" 	0
scalar base.c102.networkLayer.arp 	"failed ARP resolutions" 	0
scalar base.c102.ppp[0].queue 	"packets received by queue" 	0
scalar base.c102.ppp[0].queue 	"packets dropped by queue" 	0
scalar base.c103.networkLayer.arp 	"ARP requests sent" 	0
scalar base.c103.networkLayer.arp 	"ARP replies sent" 	0
scalar base.c103.networkLayer.arp 	"ARP resolutions" 	0
scalar base.c103.networkLayer.arp 	"failed ARP resolutions" 	0
scalar base.c103.ppp[0].queue 	"packets received by queue" 	0
scalar base.c103.ppp[0].queue 	"packets dropped by queue" 	0
scalar base.c104.networkLayer.arp 	"ARP requests sent" 	0
scalar base.c104.networkLayer.arp 	"ARP replies sent" 	0
scalar base.c104.networkLayer.arp 	"ARP resolutions" 	0
scalar base.c104.networkLayer.arp 	"failed ARP resolutions" 	0
scalar base.c104.ppp[0].queue 	"packets received by queue" 	0
scalar base.c104.ppp[0].queue 	"packets dropped by queue" 	0
scalar base.c105.networkLayer.arp 	"ARP requests sent" 	0
scalar base.c105.networkLayer.arp 	"ARP replies sent" 	0
scalar base.c105.networkLayer.arp 	"ARP resolutions" 	0
scalar base.c105.networkLayer.arp 	"failed ARP resolutions" 	0
scalar base.c105.ppp[0].queue 	"packets received by queue" 	0
scalar base.c105.ppp[0].queue 	"packets dropped by queue" 	0
scalar base.c106.networkLayer.arp 	"ARP requests sent" 	0
scalar base.c106.networkLayer.arp 	"ARP replies sent" 	0
scalar base.c106.networkLayer.arp 	"ARP resolutions" 	0
scalar base.c106.networkLayer.arp 	"failed ARP resolutions" 	0
scalar base.c106.ppp[0].queue 	"packets received by queue" 	0
scalar base.c106.ppp[0].queue 	"packets dropped by queue" 	0
scalar base.c107.networkLayer.arp 	"ARP requests sent" 	0
scalar base.c107.networkLayer.arp 	"ARP replies sent" 	0
scalar base.c107.networkLayer.arp 	"ARP resolutions" 	0
scalar base.c107.networkLayer.arp 	"failed ARP resolutions" 	0
scalar base.c107.ppp[0].queue 	"packets received by queue" 	0
scalar base.c107.ppp[0].queue 	"packets dropped by queue" 	0
scalar base.c108.networkLayer.arp 	"ARP requests sent" 	0
scalar base.c108.networkLayer.arp 	"ARP replies sent" 	0
scalar base.c108.networkLayer.arp 	"ARP resolutions" 	0
scalar base.c108.networkLayer.arp 	"failed ARP resolutions" 	0
scalar base.c108.ppp[0].queue 	"packets received by queue" 	0
scalar base.c108.ppp[0].queue 	"packets dropped by queue" 	0
scalar base.c109.networkLayer.arp 	"ARP requests sent" 	0
scalar base.c109.networkLayer.arp 	"ARP replies sent" 	0
scalar base.c109.networkLayer.arp 	"ARP resolutions" 	0
scalar base.c109.networkLayer.arp 	"failed ARP resolutions" 	0
scalar base.c109.ppp[0].queue 	"packets received by queue" 	0
scalar base.c109.ppp[0].queue 	"packets dropped by queue" 	0
scalar base.c110.networkLayer.arp 	"ARP requests sent" 	0
scalar base.c110.networkLayer.arp 	"ARP replies sent" 	0
scalar base.c110.networkLayer.arp 	"ARP resolutions" 	0
scalar base.c110.networkLayer.arp 	"failed ARP resolutions" 	0
scalar base.c110.ppp[0].queue 	"packets received by queue" 	0
scalar base.c110.ppp[0].queue 	"packets dropped by queue" 	0
scalar base.c111.networkLayer.arp 	"ARP requests sent" 	0
scalar base.c111.networkLayer.arp 	"ARP replies sent" 	0
scalar base.c111.networkLayer.arp 	"ARP resolutions" 	0
scalar base.c111.networkLayer.arp 	"failed ARP resolutions" 	0
scalar base.c111.ppp[0].queue 	"packets received by queue" 	0
scalar base.c111.ppp[0].queue 	"packets dropped by queue" 	0
scalar base.c112.networkLayer.arp 	"ARP requests sent" 	0
scalar base.c112.networkLayer.arp 	"ARP replies sent" 	0
scalar base.c112.networkLayer.arp 	"ARP resolutions" 	0
scalar base.c112.networkLayer.arp 	"failed ARP resolutions" 	0
scalar base.c112.ppp[0].queue 	"packets received by queue" 	0
scalar base.c112.ppp[0].queue 	"packets dropped by queue" 	0
scalar base.c113.networkLayer.arp 	"ARP requests sent" 	0
scalar base.c113.networkLayer.arp 	"ARP replies sent" 	0
scalar base.c113.networkLayer.arp 	"ARP resolutions" 	0
scalar base.c113.networkLayer.arp 	"failed ARP resolutions" 	0
scalar base.c113.ppp[0].queue 	"packets received by queue" 	0
scalar base.c113.ppp[0].queue 	"packets dropped by queue" 	0
scalar base.c114.networkLayer.arp 	"ARP requests sent" 	0
scalar base.c114.networkLayer.arp 	"ARP replies sent" 	0
scalar base.c114.networkLayer.arp 	"ARP resolutions" 	0
scalar base.c114.networkLayer.arp 	"failed ARP resolutions" 	0
scalar base.c114.ppp[0].queue 	"packets received by queue" 	0
scalar base.c114.ppp[0].queue 	"packets dropped by queue" 	0
scalar base.c115.networkLayer.arp 	"ARP requests sent" 	0
scalar base.c115.networkLayer.arp 	"ARP replies sent" 	0
scalar base.c115.networkLayer.arp 	"ARP resolutions" 	0
scalar base.c115.networkLayer.arp 	"failed ARP resolutions" 	0
scalar base.c115.ppp[0].queue 	"packets received by queue" 	0
scalar base.c115.ppp[0].queue 	"packets dropped by queue" 	0
scalar base.c116.networkLayer.arp 	"ARP requests sent" 	0
scalar base.c116.networkLayer.arp 	"ARP replies sent" 	0
scalar base.c116.networkLayer.arp 	"ARP resolutions" 	0
scalar base.c116.networkLayer.arp 	"failed ARP resolutions" 	0
scalar base.c116.ppp[0].queue 	"packets received by queue" 	0
scalar base.c116.ppp[0].queue 	"packets dropped by queue" 	0
scalar base.c117.networkLayer.arp 	"ARP requests sent" 	0
scalar base.c117.networkLayer.arp 	"ARP replies sent" 	0
scalar base.c117.networkLayer.arp 	"ARP resolutions" 	0
scalar base.c117.networkLayer.arp 	"failed ARP resolutions" 	0
scalar base.c117.ppp[0].queue 	"packets received by queue" 	0
scalar base.c117.ppp[0].queue 	"packets dropped by queue" 	0
scalar base.c118.networkLayer.arp 	"ARP requests sent" 	0
scalar base.c118.networkLayer.arp 	"ARP replies sent" 	0
scalar base.c118.networkLayer.arp 	"ARP resolutions" 	0
scalar base.c118.networkLayer.arp 	"failed ARP resolutions" 	0
scalar base.c118.ppp[0].queue 	"packets received by queue" 	0
scalar base.c118.ppp[0].queue 	"packets dropped by queue" 	0
scalar base.c119.networkLayer.arp 	"ARP requests sent" 	0
scalar base.c119.networkLayer.arp 	"ARP replies sent" 	0
scalar base.c119.networkLayer.arp 	"ARP resolutions" 	0
scalar base.c119.networkLayer.arp 	"failed ARP resolutions" 	0
scalar base.c119.ppp[0].queue 	"packets received by queue" 	0
scalar base.c119.ppp[0].queue 	"packets dropped by queue" 	0
scalar base.c120.networkLayer.arp 	"ARP requests sent" 	0
scalar base.c120.networkLayer.arp 	"ARP replies sent" 	0
scalar base.c120.networkLayer.arp 	"ARP resolutions" 	0
scalar base.c120.networkLayer.arp 	"failed ARP resolutions" 	0
scalar base.c120.ppp[0].queue 	"packets received by queue" 	0
scalar base.c120.ppp[0].queue 	"packets dropped by queue" 	0
scalar base.c121.networkLayer.arp 	"ARP requests sent" 	0
scalar base.c121.networkLayer.arp 	"ARP replies sent" 	0
scalar base.c121.networkLayer.arp 	"ARP resolutions" 	0
scalar base.c121.networkLayer.arp 	"failed ARP resolutions" 	0
scalar base.c121.ppp[0].queue 	"packets received by queue" 	0
scalar base.c121.ppp[0].queue 	"packets dropped by queue" 	0
scalar base.c122.networkLayer.arp 	"ARP requests sent" 	0
scalar base.c122.networkLayer.arp 	"ARP replies sent" 	0
scalar base.c122.networkLayer.arp 	"ARP resolutions" 	0
scalar base.c122.networkLayer.arp 	"failed ARP resolutions" 	0
scalar base.c122.ppp[0].queue 	"packets received by queue" 	0
scalar base.c122.ppp[0].queue 	"packets dropped by queue" 	0
scalar base.c123.networkLayer.arp 	"ARP requests sent" 	0
scalar base.c123.networkLayer.arp 	"ARP replies sent" 	0
scalar base.c123.networkLayer.arp 	"ARP resolutions" 	0
scalar base.c123.networkLayer.arp 	"failed ARP resolutions" 	0
scalar base.c123.ppp[0].queue 	"packets received by queue" 	0
scalar base.c123.ppp[0].queue 	"packets dropped by queue" 	0
scalar base.c124.networkLayer.arp 	"ARP requests sent" 	0
scalar base.c124.networkLayer.arp 	"ARP replies sent" 	0
scalar base.c124.networkLayer.arp 	"ARP resolutions" 	0
scalar base.c124.networkLayer.arp 	"failed ARP resolutions" 	0
scalar base.c124.ppp[0].queue 	"packets received by queue" 	0
scalar base.c124.ppp[0].queue 	"packets dropped by queue" 	0
scalar base.c125.networkLayer.arp 	"ARP requests sent" 	0
scalar base.c125.networkLayer.arp 	"ARP replies sent" 	0
scalar base.c125.networkLayer.arp 	"ARP resolutions" 	0
scalar base.c125.networkLayer.arp 	"failed ARP resolutions" 	0
scalar base.c125.ppp[0].queue 	"packets received by queue" 	0
scalar base.c125.ppp[0].queue 	"packets dropped by queue" 	0
scalar base.c126.networkLayer.arp 	"ARP requests sent" 	0
scalar base.c126.networkLayer.arp 	"ARP replies sent" 	0
scalar base.c126.networkLayer.arp 	"ARP resolutions" 	0
scalar base.c126.networkLayer.arp 	"failed ARP resolutions" 	0
scalar base.c126.ppp[0].queue 	"packets received by queue" 	0
scalar base.c126.ppp[0].queue 	"packets dropped by queue" 	0
scalar base.c127.networkLayer.arp 	"ARP requests sent" 	0
scalar base.c127.networkLayer.arp 	"ARP replies sent" 	0
scalar base.c127.networkLayer.arp 	"ARP resolutions" 	0
scalar base.c127.networkLayer.arp 	"failed ARP resolutions" 	0
scalar base.c127.ppp[0].queue 	"packets received by queue" 	0
scalar base.c127.ppp[0].queue 	"packets dropped by queue" 	0
scalar base.c128.networkLayer.arp 	"ARP requests sent" 	0
scalar base.c128.networkLayer.arp 	"ARP replies sent" 	0
scalar base.c128.networkLayer.arp 	"ARP resolutions" 	0
scalar base.c128.networkLayer.arp 	"failed ARP resolutions" 	0
scalar base.c128.ppp[0].queue 	"packets received by queue" 	0
scalar base.c128.ppp[0].queue 	"packets dropped by queue" 	0
scalar base.c129.networkLayer.arp 	"ARP requests sent" 	0
scalar base.c129.networkLayer.arp 	"ARP replies sent" 	0
scalar base.c129.networkLayer.arp 	"ARP resolutions" 	0
scalar base.c129.networkLayer.arp 	"failed ARP resolutions" 	0
scalar base.c129.ppp[0].queue 	"packets received by queue" 	0
scalar base.c129.ppp[0].queue 	"packets dropped by queue" 	0
scalar base.c130.networkLayer.arp 	"ARP requests sent" 	0
scalar base.c130.networkLayer.arp 	"ARP replies sent" 	0
scalar base.c130.networkLayer.arp 	"ARP resolutions" 	0
scalar base.c130.networkLayer.arp 	"failed ARP resolutions" 	0
scalar base.c130.ppp[0].queue 	"packets received by queue" 	0
scalar base.c130.ppp[0].queue 	"packets dropped by queue" 	0
scalar base.c131.networkLayer.arp 	"ARP requests sent" 	0
scalar base.c131.networkLayer.arp 	"ARP replies sent" 	0
scalar base.c131.networkLayer.arp 	"ARP resolutions" 	0
scalar base.c131.networkLayer.arp 	"failed ARP resolutions" 	0
scalar base.c131.ppp[0].queue 	"packets received by queue" 	0
scalar base.c131.ppp[0].queue 	"packets dropped by queue" 	0
scalar base.c132.networkLayer.arp 	"ARP requests sent" 	0
scalar base.c132.networkLayer.arp 	"ARP replies sent" 	0
scalar base.c132.networkLayer.arp 	"ARP resolutions" 	0
scalar base.c132.networkLayer.arp 	"failed ARP resolutions" 	0
scalar base.c132.ppp[0].queue 	"packets received by queue" 	0
scalar base.c132.ppp[0].queue 	"packets dropped by queue" 	0
scalar base.c133.networkLayer.arp 	"ARP requests sent" 	0
scalar base.c133.networkLayer.arp 	"ARP replies sent" 	0
scalar base.c133.networkLayer.arp 	"ARP resolutions" 	0
scalar base.c133.networkLayer.arp 	"failed ARP resolutions" 	0
scalar base.c133.ppp[0].queue 	"packets received by queue" 	0
scalar base.c133.ppp[0].queue 	"packets dropped by queue" 	0
scalar base.c134.networkLayer.arp 	"ARP requests sent" 	0
scalar base.c134.networkLayer.arp 	"ARP replies sent" 	0
scalar base.c134.networkLayer.arp 	"ARP resolutions" 	0
scalar base.c134.networkLayer.arp 	"failed ARP resolutions" 	0
scalar base.c134.ppp[0].queue 	"packets received by queue" 	0
scalar base.c134.ppp[0].queue 	"packets dropped by queue" 	0
scalar base.c135.networkLayer.arp 	"ARP requests sent" 	0
scalar base.c135.networkLayer.arp 	"ARP replies sent" 	0
scalar base.c135.networkLayer.arp 	"ARP resolutions" 	0
scalar base.c135.networkLayer.arp 	"failed ARP resolutions" 	0
scalar base.c135.ppp[0].queue 	"packets received by queue" 	0
scalar base.c135.ppp[0].queue 	"packets dropped by queue" 	0
scalar base.c136.networkLayer.arp 	"ARP requests sent" 	0
scalar base.c136.networkLayer.arp 	"ARP replies sent" 	0
scalar base.c136.networkLayer.arp 	"ARP resolutions" 	0
scalar base.c136.networkLayer.arp 	"failed ARP resolutions" 	0
scalar base.c136.ppp[0].queue 	"packets received by queue" 	0
scalar base.c136.ppp[0].queue 	"packets dropped by queue" 	0
scalar base.c137.networkLayer.arp 	"ARP requests sent" 	0
scalar base.c137.networkLayer.arp 	"ARP replies sent" 	0
scalar base.c137.networkLayer.arp 	"ARP resolutions" 	0
scalar base.c137.networkLayer.arp 	"failed ARP resolutions" 	0
scalar base.c137.ppp[0].queue 	"packets received by queue" 	0
scalar base.c137.ppp[0].queue 	"packets dropped by queue" 	0
scalar base.c138.networkLayer.arp 	"ARP requests sent" 	0
scalar base.c138.networkLayer.arp 	"ARP replies sent" 	0
scalar base.c138.networkLayer.arp 	"ARP resolutions" 	0
scalar base.c138.networkLayer.arp 	"failed ARP resolutions" 	0
scalar base.c138.ppp[0].queue 	"packets received by queue" 	0
scalar base.c138.ppp[0].queue 	"packets dropped by queue" 	0
scalar base.c139.networkLayer.arp 	"ARP requests sent" 	0
scalar base.c139.networkLayer.arp 	"ARP replies sent" 	0
scalar base.c139.networkLayer.arp 	"ARP resolutions" 	0
scalar base.c139.networkLayer.arp 	"failed ARP resolutions" 	0
scalar base.c139.ppp[0].queue 	"packets received by queue" 	0
scalar base.c139.ppp[0].queue 	"packets dropped by queue" 	0
scalar base.c140.networkLayer.arp 	"ARP requests sent" 	0
scalar base.c140.networkLayer.arp 	"ARP replies sent" 	0
scalar base.c140.networkLayer.arp 	"ARP resolutions" 	0
scalar base.c140.networkLayer.arp 	"failed ARP resolutions" 	0
scalar base.c140.ppp[0].queue 	"packets received by queue" 	0
scalar base.c140.ppp[0].queue 	"packets dropped by queue" 	0
scalar base.c141.networkLayer.arp 	"ARP requests sent" 	0
scalar base.c141.networkLayer.arp 	"ARP replies sent" 	0
scalar base.c141.networkLayer.arp 	"ARP resolutions" 	0
scalar base.c141.networkLayer.arp 	"failed ARP resolutions" 	0
scalar base.c141.ppp[0].queue 	"packets received by queue" 	0
scalar base.c141.ppp[0].queue 	"packets dropped by queue" 	0
scalar base.c142.networkLayer.arp 	"ARP requests sent" 	0
scalar base.c142.networkLayer.arp 	"ARP replies sent" 	0
scalar base.c142.networkLayer.arp 	"ARP resolutions" 	0
scalar base.c142.networkLayer.arp 	"failed ARP resolutions" 	0
scalar base.c142.ppp[0].queue 	"packets received by queue" 	0
scalar base.c142.ppp[0].queue 	"packets dropped by queue" 	0
scalar base.c143.networkLayer.arp 	"ARP requests sent" 	0
scalar base.c143.networkLayer.arp 	"ARP replies sent" 	0
scalar base.c143.networkLayer.arp 	"ARP resolutions" 	0
scalar base.c143.networkLayer.arp 	"failed ARP resolutions" 	0
scalar base.c143.ppp[0].queue 	"packets received by queue" 	0
scalar base.c143.ppp[0].queue 	"packets dropped by queue" 	0
scalar base.c144.networkLayer.arp 	"ARP requests sent" 	0
scalar base.c144.networkLayer.arp 	"ARP replies sent" 	0
scalar base.c144.networkLayer.arp 	"ARP resolutions" 	0
scalar base.c144.networkLayer.arp 	"failed ARP resolutions" 	0
scalar base.c144.ppp[0].queue 	"packets received by queue" 	0
scalar base.c144.ppp[0].queue 	"packets dropped by queue" 	0
scalar base.c145.networkLayer.arp 	"ARP requests sent" 	0
scalar base.c145.networkLayer.arp 	"ARP replies sent" 	0
scalar base.c145.networkLayer.arp 	"ARP resolutions" 	0
scalar base.c145.networkLayer.arp 	"failed ARP resolutions" 	0
scalar base.c145.ppp[0].queue 	"packets received by queue" 	0
scalar base.c145.ppp[0].queue 	"packets dropped by queue" 	0
scalar base.c146.networkLayer.arp 	"ARP requests sent" 	0
scalar base.c146.networkLayer.arp 	"ARP replies sent" 	0
scalar base.c146.networkLayer.arp 	"ARP resolutions" 	0
scalar base.c146.networkLayer.arp 	"failed ARP resolutions" 	0
scalar base.c146.ppp[0].queue 	"packets received by queue" 	0
scalar base.c146.ppp[0].queue 	"packets dropped by queue" 	0
scalar base.c147.networkLayer.arp 	"ARP requests sent" 	0
scalar base.c147.networkLayer.arp 	"ARP replies sent" 	0
scalar base.c147.networkLayer.arp 	"ARP resolutions" 	0
scalar base.c147.networkLayer.arp 	"failed ARP resolutions" 	0
scalar base.c147.ppp[0].queue 	"packets received by queue" 	0
scalar base.c147.ppp[0].queue 	"packets dropped by queue" 	0
scalar base.c148.networkLayer.arp 	"ARP requests sent" 	0
scalar base.c148.networkLayer.arp 	"ARP replies sent" 	0
scalar base.c148.networkLayer.arp 	"ARP resolutions" 	0
scalar base.c148.networkLayer.arp 	"failed ARP resolutions" 	0
scalar base.c148.ppp[0].queue 	"packets received by queue" 	0
scalar base.c148.ppp[0].queue 	"packets dropped by queue" 	0
scalar base.c149.networkLayer.arp 	"ARP requests sent" 	0
scalar base.c149.networkLayer.arp 	"ARP replies sent" 	0
scalar base.c149.networkLayer.arp 	"ARP resolutions" 	0
[...]
scalar base.o210.udpServerHandlers[678] 	"streams served" 	0
scalar base.o210.udpServerHandlers[679] 	"streams served" 	0
scalar base.o210.udpServerHandlers[680] 	"streams served" 	0
scalar base.o210.udpServerHandlers[681] 	"streams served" 	0
scalar base.o210.udpServerHandlers[682] 	"streams served" 	0
scalar base.o210.udpServerHandlers[683] 	"streams served" 	0
scalar base.o210.udpServerHandlers[684] 	"streams served" 	0
scalar base.o210.udpServerHandlers[685] 	"streams served" 	0
scalar base.o210.udpServerHandlers[686] 	"streams served" 	0
scalar base.o210.udpServerHandlers[687] 	"streams served" 	0
scalar base.o210.udpServerHandlers[688] 	"streams served" 	0
scalar base.o210.udpServerHandlers[689] 	"streams served" 	0
scalar base.o210.udpServerHandlers[690] 	"streams served" 	0
scalar base.o210.udpServerHandlers[691] 	"streams served" 	0
scalar base.o210.udpServerHandlers[692] 	"streams served" 	0
scalar base.o210.udpServerHandlers[693] 	"streams served" 	0
scalar base.o210.udpServerHandlers[694] 	"streams served" 	0
scalar base.o210.udpServerHandlers[695] 	"streams served" 	0
scalar base.o210.udpServerHandlers[696] 	"streams served" 	0
scalar base.o210.udpServerHandlers[697] 	"streams served" 	0
scalar base.o210.udpServerHandlers[698] 	"streams served" 	0
scalar base.o210.udpServerHandlers[699] 	"streams served" 	0
scalar base.o210.udpServerHandlers[700] 	"streams served" 	0
scalar base.o210.udpServerHandlers[701] 	"streams served" 	0
scalar base.o210.udpServerHandlers[702] 	"streams served" 	0
scalar base.o210.udpServerHandlers[703] 	"streams served" 	0
scalar base.o210.udpServerHandlers[704] 	"streams served" 	0
scalar base.o210.udpServerHandlers[705] 	"streams served" 	0
scalar base.o210.udpServerHandlers[706] 	"streams served" 	0
scalar base.o210.udpServerHandlers[707] 	"streams served" 	0
scalar base.o210.udpServerHandlers[708] 	"streams served" 	0
scalar base.o210.udpServerHandlers[709] 	"streams served" 	0
scalar base.o210.udpServerHandlers[710] 	"streams served" 	0
scalar base.o210.udpServerHandlers[711] 	"streams served" 	0
scalar base.o210.udpServerHandlers[712] 	"streams served" 	0
scalar base.o210.udpServerHandlers[713] 	"streams served" 	0
scalar base.o210.udpServerHandlers[714] 	"streams served" 	0
scalar base.o210.udpServerHandlers[715] 	"streams served" 	0
scalar base.o210.udpServerHandlers[716] 	"streams served" 	0
scalar base.o210.udpServerHandlers[717] 	"streams served" 	0
scalar base.o210.udpServerHandlers[718] 	"streams served" 	0
scalar base.o210.udpServerHandlers[719] 	"streams served" 	0
scalar base.o210.udpServerHandlers[720] 	"streams served" 	0
scalar base.o210.udpServerHandlers[721] 	"streams served" 	0
scalar base.o210.udpServerHandlers[722] 	"streams served" 	0
scalar base.o210.udpServerHandlers[723] 	"streams served" 	0
scalar base.o210.udpServerHandlers[724] 	"streams served" 	0
scalar base.o210.udpServerHandlers[725] 	"streams served" 	0
scalar base.o210.udpServerHandlers[726] 	"streams served" 	0
scalar base.o210.udpServerHandlers[727] 	"streams served" 	0
scalar base.o210.udpServerHandlers[728] 	"streams served" 	0
scalar base.o210.udpServerHandlers[729] 	"streams served" 	0
scalar base.o210.udpServerHandlers[730] 	"streams served" 	0
scalar base.o210.udpServerHandlers[731] 	"streams served" 	0
scalar base.o210.udpServerHandlers[732] 	"streams served" 	0
scalar base.o210.udpServerHandlers[733] 	"streams served" 	0
scalar base.o210.udpServerHandlers[734] 	"streams served" 	0
scalar base.o210.udpServerHandlers[735] 	"streams served" 	0
scalar base.o210.udpServerHandlers[736] 	"streams served" 	0
scalar base.o210.udpServerHandlers[737] 	"streams served" 	0
scalar base.o210.udpServerHandlers[738] 	"streams served" 	0
scalar base.o210.udpServerHandlers[739] 	"streams served" 	0
scalar base.o210.udpServerHandlers[740] 	"streams served" 	0
scalar base.o210.udpServerHandlers[741] 	"streams served" 	0
scalar base.o210.udpServerHandlers[742] 	"streams served" 	0
scalar base.o210.udpServerHandlers[743] 	"streams served" 	0
scalar base.o210.udpServerHandlers[744] 	"streams served" 	0
scalar base.o210.udpServerHandlers[745] 	"streams served" 	0
scalar base.o210.udpServerHandlers[746] 	"streams served" 	0
scalar base.o210.udpServerHandlers[747] 	"streams served" 	0
scalar base.o210.udpServerHandlers[748] 	"streams served" 	0
scalar base.o210.udpServerHandlers[749] 	"streams served" 	0
scalar base.o210.udpServerHandlers[750] 	"streams served" 	0
scalar base.o210.udpServerHandlers[751] 	"streams served" 	0
scalar base.o210.udpServerHandlers[752] 	"streams served" 	0
scalar base.o210.udpServerHandlers[753] 	"streams served" 	0
scalar base.o210.udpServerHandlers[754] 	"streams served" 	0
scalar base.o210.udpServerHandlers[755] 	"streams served" 	0
scalar base.o210.udpServerHandlers[756] 	"streams served" 	0
scalar base.o210.udpServerHandlers[757] 	"streams served" 	0
scalar base.o210.udpServerHandlers[758] 	"streams served" 	0
scalar base.o210.udpServerHandlers[759] 	"streams served" 	0
scalar base.o210.udpServerHandlers[760] 	"streams served" 	0
scalar base.o210.udpServerHandlers[761] 	"streams served" 	0
scalar base.o210.udpServerHandlers[762] 	"streams served" 	0
scalar base.o210.udpServerHandlers[763] 	"streams served" 	0
scalar base.o210.udpServerHandlers[764] 	"streams served" 	0
scalar base.o210.udpServerHandlers[765] 	"streams served" 	0
scalar base.o210.udpServerHandlers[766] 	"streams served" 	0
scalar base.o210.udpServerHandlers[767] 	"streams served" 	0
scalar base.o210.udpServerHandlers[768] 	"streams served" 	0
scalar base.o210.udpServerHandlers[769] 	"streams served" 	0
scalar base.o210.udpServerHandlers[770] 	"streams served" 	0
scalar base.o210.udpServerHandlers[771] 	"streams served" 	0
scalar base.o210.udpServerHandlers[772] 	"streams served" 	0
scalar base.o210.udpServerHandlers[773] 	"streams served" 	0
scalar base.o210.udpServerHandlers[774] 	"streams served" 	0
scalar base.o210.udpServerHandlers[775] 	"streams served" 	0
scalar base.o210.udpServerHandlers[776] 	"streams served" 	0
scalar base.o210.udpServerHandlers[777] 	"streams served" 	0
scalar base.o210.udpServerHandlers[778] 	"streams served" 	0
scalar base.o210.udpServerHandlers[779] 	"streams served" 	0
scalar base.o210.udpServerHandlers[780] 	"streams served" 	0
scalar base.o210.udpServerHandlers[781] 	"streams served" 	0
scalar base.o210.udpServerHandlers[782] 	"streams served" 	0
scalar base.o210.udpServerHandlers[783] 	"streams served" 	0
scalar base.o210.udpServerHandlers[784] 	"streams served" 	0
scalar base.o210.udpServerHandlers[785] 	"streams served" 	0
scalar base.o210.udpServerHandlers[786] 	"streams served" 	0
scalar base.o210.udpServerHandlers[787] 	"streams served" 	0
scalar base.o210.udpServerHandlers[788] 	"streams served" 	0
scalar base.o210.udpServerHandlers[789] 	"streams served" 	0
scalar base.o210.udpServerHandlers[790] 	"streams served" 	0
scalar base.o210.udpServerHandlers[791] 	"streams served" 	0
scalar base.o210.udpServerHandlers[792] 	"streams served" 	0
scalar base.o210.udpServerHandlers[793] 	"streams served" 	0
scalar base.o210.udpServerHandlers[794] 	"streams served" 	0
scalar base.o210.udpServerHandlers[795] 	"streams served" 	0
scalar base.o210.udpServerHandlers[796] 	"streams served" 	0
scalar base.o210.udpServerHandlers[797] 	"streams served" 	0
scalar base.o210.udpServerHandlers[798] 	"streams served" 	0
scalar base.o210.udpServerHandlers[799] 	"streams served" 	0
scalar base.o210.udpServerHandlers[800] 	"streams served" 	0
scalar base.o210.udpServerHandlers[801] 	"streams served" 	0
scalar base.o210.udpServerHandlers[802] 	"streams served" 	0
scalar base.o210.udpServerHandlers[803] 	"streams served" 	0
scalar base.o210.udpServerHandlers[804] 	"streams served" 	0
scalar base.o210.udpServerHandlers[805] 	"streams served" 	0
scalar base.o210.udpServerHandlers[806] 	"streams served" 	0
scalar base.o210.udpServerHandlers[807] 	"streams served" 	0
scalar base.o210.udpServerHandlers[808] 	"streams served" 	0
scalar base.o210.udpServerHandlers[809] 	"streams served" 	0
scalar base.o210.udpServerHandlers[810] 	"streams served" 	0
scalar base.o210.udpServerHandlers[811] 	"streams served" 	0
scalar base.o210.udpServerHandlers[812] 	"streams served" 	0
scalar base.o210.udpServerHandlers[813] 	"streams served" 	0
scalar base.o210.udpServerHandlers[814] 	"streams served" 	0
scalar base.o210.udpServerHandlers[815] 	"streams served" 	0
scalar base.o210.udpServerHandlers[816] 	"streams served" 	0
scalar base.o210.udpServerHandlers[817] 	"streams served" 	0
scalar base.o210.udpServerHandlers[818] 	"streams served" 	0
scalar base.o210.udpServerHandlers[819] 	"streams served" 	0
scalar base.o210.udpServerHandlers[820] 	"streams served" 	0
scalar base.o210.udpServerHandlers[821] 	"streams served" 	0
scalar base.o210.udpServerHandlers[822] 	"streams served" 	0
scalar base.o210.udpServerHandlers[823] 	"streams served" 	0
scalar base.o210.udpServerHandlers[824] 	"streams served" 	0
scalar base.o210.udpServerHandlers[825] 	"streams served" 	0
scalar base.o210.udpServerHandlers[826] 	"streams served" 	0
scalar base.o210.udpServerHandlers[827] 	"streams served" 	0
scalar base.o210.udpServerHandlers[828] 	"streams served" 	0
scalar base.o210.udpServerHandlers[829] 	"streams served" 	0
scalar base.o210.udpServerHandlers[830] 	"streams served" 	0
scalar base.o210.udpServerHandlers[831] 	"streams served" 	0
scalar base.o210.udpServerHandlers[832] 	"streams served" 	0
scalar base.o210.udpServerHandlers[833] 	"streams served" 	0
scalar base.o210.udpServerHandlers[834] 	"streams served" 	0
scalar base.o210.udpServerHandlers[835] 	"streams served" 	0
scalar base.o210.udpServerHandlers[836] 	"streams served" 	0
scalar base.o210.udpServerHandlers[837] 	"streams served" 	0
scalar base.o210.udpServerHandlers[838] 	"streams served" 	0
scalar base.o210.udpServerHandlers[839] 	"streams served" 	0
scalar base.o210.udpServerHandlers[840] 	"streams served" 	0
scalar base.o210.udpServerHandlers[841] 	"streams served" 	0
scalar base.o210.udpServerHandlers[842] 	"streams served" 	0
scalar base.o210.udpServerHandlers[843] 	"streams served" 	0
scalar base.o210.udpServerHandlers[844] 	"streams served" 	0
scalar base.o210.udpServerHandlers[845] 	"streams served" 	0
scalar base.o210.udpServerHandlers[846] 	"streams served" 	0
scalar base.o210.udpServerHandlers[847] 	"streams served" 	0
scalar base.o210.udpServerHandlers[848] 	"streams served" 	0
scalar base.o210.udpServerHandlers[849] 	"streams served" 	0
scalar base.o210.udpServerHandlers[850] 	"streams served" 	0
scalar base.o210.udpServerHandlers[851] 	"streams served" 	0
scalar base.o210.udpServerHandlers[852] 	"streams served" 	0
scalar base.o210.udpServerHandlers[853] 	"streams served" 	0
scalar base.o210.udpServerHandlers[854] 	"streams served" 	0
scalar base.o210.udpServerHandlers[855] 	"streams served" 	0
scalar base.o210.udpServerHandlers[856] 	"streams served" 	0
scalar base.o210.udpServerHandlers[857] 	"streams served" 	0
scalar base.o210.udpServerHandlers[858] 	"streams served" 	0
scalar base.o210.udpServerHandlers[859] 	"streams served" 	0
scalar base.o210.udpServerHandlers[860] 	"streams served" 	0
scalar base.o210.udpServerHandlers[861] 	"streams served" 	0
scalar base.o210.udpServerHandlers[862] 	"streams served" 	0
scalar base.o210.udpServerHandlers[863] 	"streams served" 	0
scalar base.o210.udpServerHandlers[864] 	"streams served" 	0
scalar base.o210.udpServerHandlers[865] 	"streams served" 	0
scalar base.o210.udpServerHandlers[866] 	"streams served" 	0
scalar base.o210.udpServerHandlers[867] 	"streams served" 	0
scalar base.o210.udpServerHandlers[868] 	"streams served" 	0
scalar base.o210.udpServerHandlers[869] 	"streams served" 	0
scalar base.o210.udpServerHandlers[870] 	"streams served" 	0
scalar base.o210.udpServerHandlers[871] 	"streams served" 	0
scalar base.o210.udpServerHandlers[872] 	"streams served" 	0
scalar base.o210.udpServerHandlers[873] 	"streams served" 	0
scalar base.o210.udpServerHandlers[874] 	"streams served" 	0
scalar base.o210.udpServerHandlers[875] 	"streams served" 	0
scalar base.o210.udpServerHandlers[876] 	"streams served" 	0
scalar base.o210.udpServerHandlers[877] 	"streams served" 	0
scalar base.o210.udpServerHandlers[878] 	"streams served" 	0
scalar base.o210.udpServerHandlers[879] 	"streams served" 	0
scalar base.o210.udpServerHandlers[880] 	"streams served" 	0
scalar base.o210.udpServerHandlers[881] 	"streams served" 	0
scalar base.o210.udpServerHandlers[882] 	"streams served" 	0
scalar base.o210.udpServerHandlers[883] 	"streams served" 	0
scalar base.o210.udpServerHandlers[884] 	"streams served" 	0
scalar base.o210.udpServerHandlers[885] 	"streams served" 	0
scalar base.o210.udpServerHandlers[886] 	"streams served" 	0
scalar base.o210.udpServerHandlers[887] 	"streams served" 	0
scalar base.o210.udpServerHandlers[888] 	"streams served" 	0
scalar base.o210.udpServerHandlers[889] 	"streams served" 	0
scalar base.o210.udpServerHandlers[890] 	"streams served" 	0
scalar base.o210.udpServerHandlers[891] 	"streams served" 	0
scalar base.o210.udpServerHandlers[892] 	"streams served" 	0
scalar base.o210.udpServerHandlers[893] 	"streams served" 	0
scalar base.o210.udpServerHandlers[894] 	"streams served" 	0
scalar base.o210.udpServerHandlers[895] 	"streams served" 	0
scalar base.o210.udpServerHandlers[896] 	"streams served" 	0
scalar base.o210.udpServerHandlers[897] 	"streams served" 	0
scalar base.o210.udpServerHandlers[898] 	"streams served" 	0
scalar base.o210.udpServerHandlers[899] 	"streams served" 	0
scalar base.o210.udpServerHandlers[900] 	"streams served" 	0
scalar base.o210.udpServerHandlers[901] 	"streams served" 	0
scalar base.o210.udpServerHandlers[902] 	"streams served" 	0
scalar base.o210.udpServerHandlers[903] 	"streams served" 	0
scalar base.o210.udpServerHandlers[904] 	"streams served" 	0
scalar base.o210.udpServerHandlers[905] 	"streams served" 	0
scalar base.o210.udpServerHandlers[906] 	"streams served" 	0
scalar base.o210.udpServerHandlers[907] 	"streams served" 	0
scalar base.o210.udpServerHandlers[908] 	"streams served" 	0
scalar base.o210.udpServerHandlers[909] 	"streams served" 	0
scalar base.o210.udpServerHandlers[910] 	"streams served" 	0
scalar base.o210.udpServerHandlers[911] 	"streams served" 	0
scalar base.o210.udpServerHandlers[912] 	"streams served" 	0
scalar base.o210.udpServerHandlers[913] 	"streams served" 	0
scalar base.o210.udpServerHandlers[914] 	"streams served" 	0
scalar base.o210.udpServerHandlers[915] 	"streams served" 	0
scalar base.o210.udpServerHandlers[916] 	"streams served" 	0
scalar base.o210.udpServerHandlers[917] 	"streams served" 	0
scalar base.o210.udpServerHandlers[918] 	"streams served" 	0
scalar base.o210.udpServerHandlers[919] 	"streams served" 	0
scalar base.o210.udpServerHandlers[920] 	"streams served" 	0
scalar base.o210.udpServerHandlers[921] 	"streams served" 	0
scalar base.o210.udpServerHandlers[922] 	"streams served" 	0
scalar base.o210.udpServerHandlers[923] 	"streams served" 	0
scalar base.o210.udpServerHandlers[924] 	"streams served" 	0
scalar base.o210.udpServerHandlers[925] 	"streams served" 	0
scalar base.o210.udpServerHandlers[926] 	"streams served" 	0
scalar base.o210.udpServerHandlers[927] 	"streams served" 	0
scalar base.o210.udpServerHandlers[928] 	"streams served" 	0
scalar base.o210.udpServerHandlers[929] 	"streams served" 	0
scalar base.o210.udpServerHandlers[930] 	"streams served" 	0
scalar base.o210.udpServerHandlers[931] 	"streams served" 	0
scalar base.o210.udpServerHandlers[932] 	"streams served" 	0
scalar base.o210.udpServerHandlers[933] 	"streams served" 	0
scalar base.o210.udpServerHandlers[934] 	"streams served" 	0
scalar base.o210.udpServerHandlers[935] 	"streams served" 	0
scalar base.o210.udpServerHandlers[936] 	"streams served" 	0
scalar base.o210.udpServerHandlers[937] 	"streams served" 	0
scalar base.o210.udpServerHandlers[938] 	"streams served" 	0
scalar base.o210.udpServerHandlers[939] 	"streams served" 	0
scalar base.o210.udpServerHandlers[940] 	"streams served" 	0
scalar base.o210.udpServerHandlers[941] 	"streams served" 	0
scalar base.o210.udpServerHandlers[942] 	"streams served" 	0
scalar base.o210.udpServerHandlers[943] 	"streams served" 	0
scalar base.o210.udpServerHandlers[944] 	"streams served" 	0
scalar base.o210.udpServerHandlers[945] 	"streams served" 	0
scalar base.o210.udpServerHandlers[946] 	"streams served" 	0
scalar base.o210.udpServerHandlers[947] 	"streams served" 	0
scalar base.o210.udpServerHandlers[948] 	"streams served" 	0
scalar base.o210.udpServerHandlers[949] 	"streams served" 	0
scalar base.o210.udpServerHandlers[950] 	"streams served" 	0
scalar base.o210.udpServerHandlers[951] 	"streams served" 	0
scalar base.o210.udpServerHandlers[952] 	"streams served" 	0
scalar base.o210.udpServerHandlers[953] 	"streams served" 	0
scalar base.o210.udpServerHandlers[954] 	"streams served" 	0
scalar base.o210.udpServerHandlers[955] 	"streams served" 	0
scalar base.o210.udpServerHandlers[956] 	"streams served" 	0
scalar base.o210.udpServerHandlers[957] 	"streams served" 	0
scalar base.o210.udpServerHandlers[958] 	"streams served" 	0
scalar base.o210.udpServerHandlers[959] 	"streams served" 	0
scalar base.o210.udpServerHandlers[960] 	"streams served" 	0
scalar base.o210.udpServerHandlers[961] 	"streams served" 	0
scalar base.o210.udpServerHandlers[962] 	"streams served" 	0
scalar base.o210.udpServerHandlers[963] 	"streams served" 	0
scalar base.o210.udpServerHandlers[964] 	"streams served" 	0
scalar base.o210.udpServerHandlers[965] 	"streams served" 	0
scalar base.o210.udpServerHandlers[966] 	"streams served" 	0
scalar base.o210.udpServerHandlers[967] 	"streams served" 	0
scalar base.o210.udpServerHandlers[968] 	"streams served" 	0
scalar base.o210.udpServerHandlers[969] 	"streams served" 	0
scalar base.o210.udpServerHandlers[970] 	"streams served" 	0
scalar base.o210.udpServerHandlers[971] 	"streams served" 	0
scalar base.o210.udpServerHandlers[972] 	"streams served" 	0
scalar base.o210.udpServerHandlers[973] 	"streams served" 	0
scalar base.o210.udpServerHandlers[974] 	"streams served" 	0
scalar base.o210.udpServerHandlers[975] 	"streams served" 	0
scalar base.o210.udpServerHandlers[976] 	"streams served" 	0
scalar base.o210.udpServerHandlers[977] 	"streams served" 	0
scalar base.o210.udpServerHandlers[978] 	"streams served" 	0
scalar base.o210.udpServerHandlers[979] 	"streams served" 	0
scalar base.o210.udpServerHandlers[980] 	"streams served" 	0
scalar base.o210.udpServerHandlers[981] 	"streams served" 	0
scalar base.o210.udpServerHandlers[982] 	"streams served" 	0
scalar base.o210.udpServerHandlers[983] 	"streams served" 	0
scalar base.o210.udpServerHandlers[984] 	"streams served" 	0
scalar base.o210.udpServerHandlers[985] 	"streams served" 	0
scalar base.o210.udpServerHandlers[986] 	"streams served" 	0
scalar base.o210.udpServerHandlers[987] 	"streams served" 	0
scalar base.o210.udpServerHandlers[988] 	"streams served" 	0
scalar base.o210.udpServerHandlers[989] 	"streams served" 	0
scalar base.o210.udpServerHandlers[990] 	"streams served" 	0
scalar base.o210.udpServerHandlers[991] 	"streams served" 	0
scalar base.o210.udpServerHandlers[992] 	"streams served" 	0
scalar base.o210.udpServerHandlers[993] 	"streams served" 	0
scalar base.o210.udpServerHandlers[994] 	"streams served" 	0
scalar base.o210.udpServerHandlers[995] 	"streams served" 	0
scalar base.o210.udpServerHandlers[996] 	"streams served" 	0
scalar base.o210.udpServerHandlers[997] 	"streams served" 	0
scalar base.o210.udpServerHandlers[998] 	"streams served" 	0
scalar base.o210.udpServerHandlers[999] 	"streams served" 	0
scalar base.o210.networkLayer.arp 	"ARP requests sent" 	0
scalar base.o210.networkLayer.arp 	"ARP replies sent" 	0
scalar base.o210.networkLayer.arp 	"ARP resolutions" 	0
scalar base.o210.networkLayer.arp 	"failed ARP resolutions" 	0
scalar base.o210.ppp[0].queue 	"packets received by queue" 	1
scalar base.o210.ppp[0].queue 	"packets dropped by queue" 	0
